{
  "completed_status": "Success",
  "current_step": 1,
  "eplusout_err": [
    "Program Version,EnergyPlus, Version 9.4.0-998c4b761e, ",
    "   ************* Beginning Zone Sizing Calculations",
    "   ** Warning ** ProcessScheduleInput: Schedule:Day:Interval=\"{15D5D1FE-0CB7-42A1-BC75-EED1029C30C8}\", Blank Schedule Type Limits Name input -- will not be validated.",
    "   ** Warning ** ProcessScheduleInput: Schedule:Day:Interval=\"{1A2A658B-EED6-48B1-B8D7-C86679A39F7A}\", Blank Schedule Type Limits Name input -- will not be validated.",
    "   ** Warning ** ProcessScheduleInput: Schedule:Day:Interval=\"{1B602B2B-F66B-4C80-BA4D-674C2B155F8D}\", Blank Schedule Type Limits Name input -- will not be validated.",
    "   ** Warning ** ProcessScheduleInput: Schedule:Day:Interval=\"{3700AF71-13C3-46A2-9E28-4ABFEBAEA705}\", Blank Schedule Type Limits Name input -- will not be validated.",
    "   ** Warning ** ProcessScheduleInput: Schedule:Day:Interval=\"{43BCB453-5B73-4684-ACEC-582EA46C1DF5}\", Blank Schedule Type Limits Name input -- will not be validated.",
    "   ** Warning ** ProcessScheduleInput: Schedule:Day:Interval=\"{44D24742-4F58-4B1A-ADD8-64832C992934}\", Blank Schedule Type Limits Name input -- will not be validated.",
    "   ** Warning ** ProcessScheduleInput: Schedule:Day:Interval=\"{5F46196E-B5A6-429C-B53A-A841D02B30A2}\", Blank Schedule Type Limits Name input -- will not be validated.",
    "   ** Warning ** ProcessScheduleInput: Schedule:Day:Interval=\"{61239E78-3A74-42EA-BBD9-EFC05129DB7E}\", Blank Schedule Type Limits Name input -- will not be validated.",
    "   ** Warning ** ProcessScheduleInput: Schedule:Day:Interval=\"{6366B7B3-E877-4F48-9DD8-DCD4E1AE3F3E}\", Blank Schedule Type Limits Name input -- will not be validated.",
    "   ** Warning ** ProcessScheduleInput: Schedule:Day:Interval=\"{65A9BBBC-FD0F-4F14-B6CE-1636497170B8}\", Blank Schedule Type Limits Name input -- will not be validated.",
    "   ** Warning ** ProcessScheduleInput: Schedule:Day:Interval=\"{8BBBAEF9-34D3-4B78-AFBD-846D30823499}\", Blank Schedule Type Limits Name input -- will not be validated.",
    "   ** Warning ** ProcessScheduleInput: Schedule:Day:Interval=\"{A314D202-C8C0-4D0C-AAD3-DB23F577CFB8}\", Blank Schedule Type Limits Name input -- will not be validated.",
    "   ** Warning ** ProcessScheduleInput: Schedule:Day:Interval=\"{ABC098B5-D14C-4FA9-8AB2-73B6D6FEBB45}\", Blank Schedule Type Limits Name input -- will not be validated.",
    "   ** Warning ** ProcessScheduleInput: Schedule:Day:Interval=\"{AC30E748-F232-4217-8664-398EED78F32B}\", Blank Schedule Type Limits Name input -- will not be validated.",
    "   ** Warning ** ProcessScheduleInput: Schedule:Day:Interval=\"{B2E3C9E6-423E-4435-89D2-B67AA4558647}\", Blank Schedule Type Limits Name input -- will not be validated.",
    "   ** Warning ** ProcessScheduleInput: Schedule:Day:Interval=\"{B878468C-6C50-4B48-9346-29D083F2A434}\", Blank Schedule Type Limits Name input -- will not be validated.",
    "   ** Warning ** ProcessScheduleInput: Schedule:Day:Interval=\"{C19F8F7E-6457-4C70-B627-E5BB45EF86DA}\", Blank Schedule Type Limits Name input -- will not be validated.",
    "   ** Warning ** ProcessScheduleInput: Schedule:Day:Interval=\"{CE76A744-5DC3-479A-BF69-9E5CF0F54D4B}\", Blank Schedule Type Limits Name input -- will not be validated.",
    "   ** Warning ** ProcessScheduleInput: Schedule:Day:Interval=\"{E16DC461-B4B3-46D6-98B5-55E3FDA6E004}\", Blank Schedule Type Limits Name input -- will not be validated.",
    "   ** Warning ** ProcessScheduleInput: Schedule:Year=\"CAFETERIA_SPC TARGET SHW TEMP\", Blank Schedule Type Limits Name input -- will not be validated.",
    "   ** Warning ** ProcessScheduleInput: Schedule:Year=\"MECH/ELEC_SPC TARGET SHW TEMP\", Blank Schedule Type Limits Name input -- will not be validated.",
    "   ** Warning ** ProcessScheduleInput: Schedule:Year=\"OFFICE_SPC TARGET SHW TEMP\", Blank Schedule Type Limits Name input -- will not be validated.",
    "   ** Warning ** ProcessScheduleInput: Schedule:Year=\"WING1_SIDE1_CLASS1_SPC TARGET SHW TEMP\", Blank Schedule Type Limits Name input -- will not be validated.",
    "   ** Warning ** ProcessScheduleInput: Schedule:Year=\"WING1_SIDE1_CLASS2_SPC TARGET SHW TEMP\", Blank Schedule Type Limits Name input -- will not be validated.",
    "   ** Warning ** ProcessScheduleInput: Schedule:Year=\"WING1_SIDE1_CLASS3_SPC TARGET SHW TEMP\", Blank Schedule Type Limits Name input -- will not be validated.",
    "   ** Warning ** ProcessScheduleInput: Schedule:Year=\"WING1_SIDE1_CLASS4_SPC TARGET SHW TEMP\", Blank Schedule Type Limits Name input -- will not be validated.",
    "   ** Warning ** ProcessScheduleInput: Schedule:Year=\"WING1_SIDE2_CLASS1_SPC TARGET SHW TEMP\", Blank Schedule Type Limits Name input -- will not be validated.",
    "   ** Warning ** ProcessScheduleInput: Schedule:Year=\"WING1_SIDE2_CLASS2_SPC TARGET SHW TEMP\", Blank Schedule Type Limits Name input -- will not be validated.",
    "   ** Warning ** ProcessScheduleInput: Schedule:Year=\"WING1_SIDE2_CLASS3_SPC TARGET SHW TEMP\", Blank Schedule Type Limits Name input -- will not be validated.",
    "   ** Warning ** ProcessScheduleInput: Schedule:Year=\"WING1_SIDE2_CLASS4_SPC TARGET SHW TEMP\", Blank Schedule Type Limits Name input -- will not be validated.",
    "   ** Warning ** ProcessScheduleInput: Schedule:Year=\"WING2_SIDE1_CLASS1_SPC TARGET SHW TEMP\", Blank Schedule Type Limits Name input -- will not be validated.",
    "   ** Warning ** ProcessScheduleInput: Schedule:Year=\"WING2_SIDE1_CLASS2_SPC TARGET SHW TEMP\", Blank Schedule Type Limits Name input -- will not be validated.",
    "   ** Warning ** ProcessScheduleInput: Schedule:Year=\"WING2_SIDE1_CLASS3_SPC TARGET SHW TEMP\", Blank Schedule Type Limits Name input -- will not be validated.",
    "   ** Warning ** ProcessScheduleInput: Schedule:Year=\"WING2_SIDE1_CLASS4_SPC TARGET SHW TEMP\", Blank Schedule Type Limits Name input -- will not be validated.",
    "   ** Warning ** ProcessScheduleInput: Schedule:Year=\"WING2_SIDE2_CLASS1_SPC TARGET SHW TEMP\", Blank Schedule Type Limits Name input -- will not be validated.",
    "   ** Warning ** ProcessScheduleInput: Schedule:Year=\"WING2_SIDE2_CLASS2_SPC TARGET SHW TEMP\", Blank Schedule Type Limits Name input -- will not be validated.",
    "   ** Warning ** ProcessScheduleInput: Schedule:Year=\"WING2_SIDE2_CLASS3_SPC TARGET SHW TEMP\", Blank Schedule Type Limits Name input -- will not be validated.",
    "   ** Warning ** ProcessScheduleInput: Schedule:Year=\"WING2_SIDE2_CLASS4_SPC TARGET SHW TEMP\", Blank Schedule Type Limits Name input -- will not be validated.",
    "   ** Warning ** ProcessScheduleInput: Schedule:Constant=\"ALWAYS OFF DISCRETE\", Blank Schedule Type Limits Name input -- will not be validated.",
    "   ** Warning ** ProcessScheduleInput: Schedule:Constant=\"ALWAYS ON CONTINUOUS\", Blank Schedule Type Limits Name input -- will not be validated.",
    "   ** Warning ** Weather file location will be used rather than entered (IDF) Location object.",
    "   **   ~~~   ** ..Location object={A1FB486F-260E-4C3D-BF32-E96C74F8A184}",
    "   **   ~~~   ** ..Weather File Location=Chicago Ohare Intl Ap IL USA TMY3 WMO#=725300",
    "   **   ~~~   ** ..due to location differences, Latitude difference=[3.40] degrees, Longitude difference=[33.57] degrees.",
    "   **   ~~~   ** ..Time Zone difference=[2.0] hour(s), Elevation difference=[4972.68] percent, [197.04] meters.",
    "   ** Warning ** GetDaylightingControls: Fraction of Zone controlled by the Daylighting reference points is < 1.0.",
    "   **   ~~~   ** ..discovered in \"Daylighting:Controls\" for Zone=\"COMMON_CAFETERIA_ZN\", only 0.734 of the zone is controlled.",
    "   ** Warning ** GetDaylightingControls: Fraction of Zone controlled by the Daylighting reference points is < 1.0.",
    "   **   ~~~   ** ..discovered in \"Daylighting:Controls\" for Zone=\"COMMON_CORRIDOR_ZN\", only 0.369 of the zone is controlled.",
    "   ** Warning ** GetDaylightingControls: Fraction of Zone controlled by the Daylighting reference points is < 1.0.",
    "   **   ~~~   ** ..discovered in \"Daylighting:Controls\" for Zone=\"COMMON_LOBBY_ZN\", only 0.958 of the zone is controlled.",
    "   ** Warning ** GetDaylightingControls: Fraction of Zone controlled by the Daylighting reference points is < 1.0.",
    "   **   ~~~   ** ..discovered in \"Daylighting:Controls\" for Zone=\"COMMON_OFFICE_ZN\", only 0.613 of the zone is controlled.",
    "   ** Warning ** GetDaylightingControls: Fraction of Zone controlled by the Daylighting reference points is < 1.0.",
    "   **   ~~~   ** ..discovered in \"Daylighting:Controls\" for Zone=\"WING1_SIDE1_ZN\", only 0.962 of the zone is controlled.",
    "   ** Warning ** GetDaylightingControls: Fraction of Zone controlled by the Daylighting reference points is < 1.0.",
    "   **   ~~~   ** ..discovered in \"Daylighting:Controls\" for Zone=\"WING1_SIDE2_ZN\", only 0.960 of the zone is controlled.",
    "   ** Warning ** GetDaylightingControls: Fraction of Zone controlled by the Daylighting reference points is < 1.0.",
    "   **   ~~~   ** ..discovered in \"Daylighting:Controls\" for Zone=\"WING2_SIDE1_ZN\", only 0.960 of the zone is controlled.",
    "   ** Warning ** GetDaylightingControls: Fraction of Zone controlled by the Daylighting reference points is < 1.0.",
    "   **   ~~~   ** ..discovered in \"Daylighting:Controls\" for Zone=\"WING2_SIDE2_ZN\", only 0.960 of the zone is controlled.",
    "   ** Warning ** GetSimpleAirModelInputs: ZoneInfiltration:DesignFlowRate=\"RESTROOM_SPC SPACE INFILTRATION DESIGN FLOW RATE 1\", Design Flow Rate Calculation Method specifies Flow per Exterior Surface Area, but Exterior Wall Area = 0.  0 Infiltration will result.",
    "   ************* Beginning System Sizing Calculations",
    "   ** Warning ** Since Zone Minimum Air Flow Input Method = FIXEDFLOWRATE, input for Constant Minimum Air Flow Fraction will be ignored.",
    "   **   ~~~   ** Occurs in AirTerminal:SingleDuct:VAV:Reheat = COMMON_CAFETERIA_ZN_TU",
    "   ** Warning ** Since Damper Heating Action = REVERSE, input for Maximum Flow Fraction During Reheat will be ignored.",
    "   **   ~~~   ** Occurs in AirTerminal:SingleDuct:VAV:Reheat = COMMON_CAFETERIA_ZN_TU",
    "   ** Warning ** Since Zone Minimum Air Flow Input Method = FIXEDFLOWRATE, input for Constant Minimum Air Flow Fraction will be ignored.",
    "   **   ~~~   ** Occurs in AirTerminal:SingleDuct:VAV:Reheat = COMMON_CORRIDOR_ZN_TU",
    "   ** Warning ** Since Damper Heating Action = REVERSE, input for Maximum Flow Fraction During Reheat will be ignored.",
    "   **   ~~~   ** Occurs in AirTerminal:SingleDuct:VAV:Reheat = COMMON_CORRIDOR_ZN_TU",
    "   ** Warning ** Since Zone Minimum Air Flow Input Method = FIXEDFLOWRATE, input for Constant Minimum Air Flow Fraction will be ignored.",
    "   **   ~~~   ** Occurs in AirTerminal:SingleDuct:VAV:Reheat = COMMON_LOBBY_ZN_TU",
    "   ** Warning ** Since Damper Heating Action = REVERSE, input for Maximum Flow Fraction During Reheat will be ignored.",
    "   **   ~~~   ** Occurs in AirTerminal:SingleDuct:VAV:Reheat = COMMON_LOBBY_ZN_TU",
    "   ** Warning ** Since Zone Minimum Air Flow Input Method = FIXEDFLOWRATE, input for Constant Minimum Air Flow Fraction will be ignored.",
    "   **   ~~~   ** Occurs in AirTerminal:SingleDuct:VAV:Reheat = COMMON_MECH/ELEC_TU",
    "   ** Warning ** Since Damper Heating Action = REVERSE, input for Maximum Flow Fraction During Reheat will be ignored.",
    "   **   ~~~   ** Occurs in AirTerminal:SingleDuct:VAV:Reheat = COMMON_MECH/ELEC_TU",
    "   ** Warning ** Since Zone Minimum Air Flow Input Method = FIXEDFLOWRATE, input for Constant Minimum Air Flow Fraction will be ignored.",
    "   **   ~~~   ** Occurs in AirTerminal:SingleDuct:VAV:Reheat = COMMON_OFFICE_ZN_TU",
    "   ** Warning ** Since Damper Heating Action = REVERSE, input for Maximum Flow Fraction During Reheat will be ignored.",
    "   **   ~~~   ** Occurs in AirTerminal:SingleDuct:VAV:Reheat = COMMON_OFFICE_ZN_TU",
    "   ** Warning ** Since Zone Minimum Air Flow Input Method = FIXEDFLOWRATE, input for Constant Minimum Air Flow Fraction will be ignored.",
    "   **   ~~~   ** Occurs in AirTerminal:SingleDuct:VAV:Reheat = COMMON_RESTROOM_ZN_TU",
    "   ** Warning ** Since Damper Heating Action = REVERSE, input for Maximum Flow Fraction During Reheat will be ignored.",
    "   **   ~~~   ** Occurs in AirTerminal:SingleDuct:VAV:Reheat = COMMON_RESTROOM_ZN_TU",
    "   ** Warning ** Since Zone Minimum Air Flow Input Method = FIXEDFLOWRATE, input for Constant Minimum Air Flow Fraction will be ignored.",
    "   **   ~~~   ** Occurs in AirTerminal:SingleDuct:VAV:Reheat = WING1_CORRIDOR_ZN_TU",
    "   ** Warning ** Since Damper Heating Action = REVERSE, input for Maximum Flow Fraction During Reheat will be ignored.",
    "   **   ~~~   ** Occurs in AirTerminal:SingleDuct:VAV:Reheat = WING1_CORRIDOR_ZN_TU",
    "   ** Warning ** Since Zone Minimum Air Flow Input Method = FIXEDFLOWRATE, input for Constant Minimum Air Flow Fraction will be ignored.",
    "   **   ~~~   ** Occurs in AirTerminal:SingleDuct:VAV:Reheat = WING1_SIDE1_ZN_TU",
    "   ** Warning ** Since Damper Heating Action = REVERSE, input for Maximum Flow Fraction During Reheat will be ignored.",
    "   **   ~~~   ** Occurs in AirTerminal:SingleDuct:VAV:Reheat = WING1_SIDE1_ZN_TU",
    "   ** Warning ** Since Zone Minimum Air Flow Input Method = FIXEDFLOWRATE, input for Constant Minimum Air Flow Fraction will be ignored.",
    "   **   ~~~   ** Occurs in AirTerminal:SingleDuct:VAV:Reheat = WING1_SIDE2_ZN_TU",
    "   ** Warning ** Since Damper Heating Action = REVERSE, input for Maximum Flow Fraction During Reheat will be ignored.",
    "   **   ~~~   ** Occurs in AirTerminal:SingleDuct:VAV:Reheat = WING1_SIDE2_ZN_TU",
    "   ** Warning ** Since Zone Minimum Air Flow Input Method = FIXEDFLOWRATE, input for Constant Minimum Air Flow Fraction will be ignored.",
    "   **   ~~~   ** Occurs in AirTerminal:SingleDuct:VAV:Reheat = WING2_CORRIDOR_ZN_TU",
    "   ** Warning ** Since Damper Heating Action = REVERSE, input for Maximum Flow Fraction During Reheat will be ignored.",
    "   **   ~~~   ** Occurs in AirTerminal:SingleDuct:VAV:Reheat = WING2_CORRIDOR_ZN_TU",
    "   ** Warning ** Since Zone Minimum Air Flow Input Method = FIXEDFLOWRATE, input for Constant Minimum Air Flow Fraction will be ignored.",
    "   **   ~~~   ** Occurs in AirTerminal:SingleDuct:VAV:Reheat = WING2_SIDE1_ZN_TU",
    "   ** Warning ** Since Damper Heating Action = REVERSE, input for Maximum Flow Fraction During Reheat will be ignored.",
    "   **   ~~~   ** Occurs in AirTerminal:SingleDuct:VAV:Reheat = WING2_SIDE1_ZN_TU",
    "   ** Warning ** Since Zone Minimum Air Flow Input Method = FIXEDFLOWRATE, input for Constant Minimum Air Flow Fraction will be ignored.",
    "   **   ~~~   ** Occurs in AirTerminal:SingleDuct:VAV:Reheat = WING2_SIDE2_ZN_TU",
    "   ** Warning ** Since Damper Heating Action = REVERSE, input for Maximum Flow Fraction During Reheat will be ignored.",
    "   **   ~~~   ** Occurs in AirTerminal:SingleDuct:VAV:Reheat = WING2_SIDE2_ZN_TU",
    "   ************* Beginning Plant Sizing Calculations",
    "   ** Warning ** GetOAControllerInputs: Controller:MechanicalVentilation=\"SCHOOL-VAV-SYS_OACTRL MECH VENT CONTROLLER",
    "   **   ~~~   ** Cannot locate a matching DesignSpecification:ZoneAirDistribution object for Zone=\"COMMON_CAFETERIA_ZN\".",
    "   **   ~~~   ** Using default zone air distribution effectiveness of 1.0 for heating and cooling.",
    "   ** Warning ** GetOAControllerInputs: Controller:MechanicalVentilation=\"SCHOOL-VAV-SYS_OACTRL MECH VENT CONTROLLER",
    "   **   ~~~   ** Cannot locate a matching DesignSpecification:ZoneAirDistribution object for Zone=\"COMMON_CORRIDOR_ZN\".",
    "   **   ~~~   ** Using default zone air distribution effectiveness of 1.0 for heating and cooling.",
    "   ** Warning ** GetOAControllerInputs: Controller:MechanicalVentilation=\"SCHOOL-VAV-SYS_OACTRL MECH VENT CONTROLLER",
    "   **   ~~~   ** Cannot locate a matching DesignSpecification:ZoneAirDistribution object for Zone=\"COMMON_LOBBY_ZN\".",
    "   **   ~~~   ** Using default zone air distribution effectiveness of 1.0 for heating and cooling.",
    "   ** Warning ** GetOAControllerInputs: Controller:MechanicalVentilation=\"SCHOOL-VAV-SYS_OACTRL MECH VENT CONTROLLER",
    "   **   ~~~   ** Cannot locate a matching DesignSpecification:ZoneAirDistribution object for Zone=\"COMMON_MECH/ELEC_ZN\".",
    "   **   ~~~   ** Using default zone air distribution effectiveness of 1.0 for heating and cooling.",
    "   ** Warning ** GetOAControllerInputs: Controller:MechanicalVentilation=\"SCHOOL-VAV-SYS_OACTRL MECH VENT CONTROLLER",
    "   **   ~~~   ** Cannot locate a matching DesignSpecification:ZoneAirDistribution object for Zone=\"COMMON_OFFICE_ZN\".",
    "   **   ~~~   ** Using default zone air distribution effectiveness of 1.0 for heating and cooling.",
    "   ** Warning ** GetOAControllerInputs: Controller:MechanicalVentilation=\"SCHOOL-VAV-SYS_OACTRL MECH VENT CONTROLLER",
    "   **   ~~~   ** Cannot locate a matching DesignSpecification:ZoneAirDistribution object for Zone=\"COMMON_RESTROOM_ZN\".",
    "   **   ~~~   ** Using default zone air distribution effectiveness of 1.0 for heating and cooling.",
    "   ** Warning ** GetOAControllerInputs: Controller:MechanicalVentilation=\"SCHOOL-VAV-SYS_OACTRL MECH VENT CONTROLLER",
    "   **   ~~~   ** Cannot locate a matching DesignSpecification:ZoneAirDistribution object for Zone=\"WING1_CORRIDOR_ZN\".",
    "   **   ~~~   ** Using default zone air distribution effectiveness of 1.0 for heating and cooling.",
    "   ** Warning ** GetOAControllerInputs: Controller:MechanicalVentilation=\"SCHOOL-VAV-SYS_OACTRL MECH VENT CONTROLLER",
    "   **   ~~~   ** Cannot locate a matching DesignSpecification:ZoneAirDistribution object for Zone=\"WING1_SIDE1_ZN\".",
    "   **   ~~~   ** Using default zone air distribution effectiveness of 1.0 for heating and cooling.",
    "   ** Warning ** GetOAControllerInputs: Controller:MechanicalVentilation=\"SCHOOL-VAV-SYS_OACTRL MECH VENT CONTROLLER",
    "   **   ~~~   ** Cannot locate a matching DesignSpecification:ZoneAirDistribution object for Zone=\"WING1_SIDE2_ZN\".",
    "   **   ~~~   ** Using default zone air distribution effectiveness of 1.0 for heating and cooling.",
    "   ** Warning ** GetOAControllerInputs: Controller:MechanicalVentilation=\"SCHOOL-VAV-SYS_OACTRL MECH VENT CONTROLLER",
    "   **   ~~~   ** Cannot locate a matching DesignSpecification:ZoneAirDistribution object for Zone=\"WING2_CORRIDOR_ZN\".",
    "   **   ~~~   ** Using default zone air distribution effectiveness of 1.0 for heating and cooling.",
    "   ** Warning ** GetOAControllerInputs: Controller:MechanicalVentilation=\"SCHOOL-VAV-SYS_OACTRL MECH VENT CONTROLLER",
    "   **   ~~~   ** Cannot locate a matching DesignSpecification:ZoneAirDistribution object for Zone=\"WING2_SIDE1_ZN\".",
    "   **   ~~~   ** Using default zone air distribution effectiveness of 1.0 for heating and cooling.",
    "   ** Warning ** GetOAControllerInputs: Controller:MechanicalVentilation=\"SCHOOL-VAV-SYS_OACTRL MECH VENT CONTROLLER",
    "   **   ~~~   ** Cannot locate a matching DesignSpecification:ZoneAirDistribution object for Zone=\"WING2_SIDE2_ZN\".",
    "   **   ~~~   ** Using default zone air distribution effectiveness of 1.0 for heating and cooling.",
    "   ** Warning ** Controller:MechanicalVentilation=\"SCHOOL-VAV-SYS_OACTRL MECH VENT CONTROLLER\", Zone OA/person rate",
    "   **   ~~~   ** For Zone=\"COMMON_CORRIDOR_ZN\".",
    "   **   ~~~   ** Zone outside air per person rate not set in Design Specification Outdoor Air Object=\"COMMON_CORRIDOR_ZN DESIGN SPECIFICATION OUTDOOR AIR\".",
    "   ** Warning ** Controller:MechanicalVentilation=\"SCHOOL-VAV-SYS_OACTRL MECH VENT CONTROLLER\", Zone OA/person rate",
    "   **   ~~~   ** For Zone=\"COMMON_LOBBY_ZN\".",
    "   **   ~~~   ** Zone outside air per person rate not set in Design Specification Outdoor Air Object=\"COMMON_LOBBY_ZN DESIGN SPECIFICATION OUTDOOR AIR\".",
    "   ** Warning ** Controller:MechanicalVentilation=\"SCHOOL-VAV-SYS_OACTRL MECH VENT CONTROLLER\", Zone OA/person rate",
    "   **   ~~~   ** For Zone=\"COMMON_MECH/ELEC_ZN\".",
    "   **   ~~~   ** Zone outside air per person rate not set in Design Specification Outdoor Air Object=\"COMMON_MECH/ELEC_ZN DESIGN SPECIFICATION OUTDOOR AIR\".",
    "   ** Warning ** Controller:MechanicalVentilation=\"SCHOOL-VAV-SYS_OACTRL MECH VENT CONTROLLER\", Zone OA/person rate",
    "   **   ~~~   ** For Zone=\"COMMON_OFFICE_ZN\".",
    "   **   ~~~   ** Zone outside air per person rate not set in Design Specification Outdoor Air Object=\"COMMON_OFFICE_ZN DESIGN SPECIFICATION OUTDOOR AIR\".",
    "   ** Warning ** Controller:MechanicalVentilation=\"SCHOOL-VAV-SYS_OACTRL MECH VENT CONTROLLER\", Zone OA/person rate",
    "   **   ~~~   ** For Zone=\"COMMON_RESTROOM_ZN\".",
    "   **   ~~~   ** Zone outside air per person rate not set in Design Specification Outdoor Air Object=\"COMMON_RESTROOM_ZN DESIGN SPECIFICATION OUTDOOR AIR\".",
    "   ** Warning ** Controller:MechanicalVentilation=\"SCHOOL-VAV-SYS_OACTRL MECH VENT CONTROLLER\", Zone OA/person rate",
    "   **   ~~~   ** For Zone=\"WING1_CORRIDOR_ZN\".",
    "   **   ~~~   ** Zone outside air per person rate not set in Design Specification Outdoor Air Object=\"WING1_CORRIDOR_ZN DESIGN SPECIFICATION OUTDOOR AIR\".",
    "   ** Warning ** Controller:MechanicalVentilation=\"SCHOOL-VAV-SYS_OACTRL MECH VENT CONTROLLER\", Zone OA/person rate",
    "   **   ~~~   ** For Zone=\"WING1_SIDE1_ZN\".",
    "   **   ~~~   ** Zone outside air per person rate not set in Design Specification Outdoor Air Object=\"WING1_SIDE1_ZN DESIGN SPECIFICATION OUTDOOR AIR\".",
    "   ** Warning ** Controller:MechanicalVentilation=\"SCHOOL-VAV-SYS_OACTRL MECH VENT CONTROLLER\", Zone OA/person rate",
    "   **   ~~~   ** For Zone=\"WING1_SIDE2_ZN\".",
    "   **   ~~~   ** Zone outside air per person rate not set in Design Specification Outdoor Air Object=\"WING1_SIDE2_ZN DESIGN SPECIFICATION OUTDOOR AIR\".",
    "   ** Warning ** Controller:MechanicalVentilation=\"SCHOOL-VAV-SYS_OACTRL MECH VENT CONTROLLER\", Zone OA/person rate",
    "   **   ~~~   ** For Zone=\"WING2_CORRIDOR_ZN\".",
    "   **   ~~~   ** Zone outside air per person rate not set in Design Specification Outdoor Air Object=\"WING2_CORRIDOR_ZN DESIGN SPECIFICATION OUTDOOR AIR\".",
    "   ** Warning ** Controller:MechanicalVentilation=\"SCHOOL-VAV-SYS_OACTRL MECH VENT CONTROLLER\", Zone OA/person rate",
    "   **   ~~~   ** For Zone=\"WING2_SIDE1_ZN\".",
    "   **   ~~~   ** Zone outside air per person rate not set in Design Specification Outdoor Air Object=\"WING2_SIDE1_ZN DESIGN SPECIFICATION OUTDOOR AIR\".",
    "   ** Warning ** Controller:MechanicalVentilation=\"SCHOOL-VAV-SYS_OACTRL MECH VENT CONTROLLER\", Zone OA/person rate",
    "   **   ~~~   ** For Zone=\"WING2_SIDE2_ZN\".",
    "   **   ~~~   ** Zone outside air per person rate not set in Design Specification Outdoor Air Object=\"WING2_SIDE2_ZN DESIGN SPECIFICATION OUTDOOR AIR\".",
    "   ** Warning ** Sizing: Coil:Cooling:DX:TwoSpeed \"SCHOOLSYS_COILCLG\": Rated air volume flow rate per watt of rated total cooling capacity is out of range.",
    "   **   ~~~   ** Min Rated Vol Flow Per Watt=[4.027E-005], Rated Vol Flow Per Watt=[3.876E-005], Max Rated Vol Flow Per Watt=[6.041E-005]. See Input Output Reference Manual for valid range.",
    "   ** Warning ** Coil:Cooling:DX:TwoSpeed \"SCHOOLSYS_COILCLG\": At low speed rated air volume flow rate per watt of rated total cooling capacity is out of range.",
    "   **   ~~~   ** Min Rated Vol Flow Per Watt=[4.027E-005], Rated Vol Flow Per Watt=[3.876E-005], Max Rated Vol Flow Per Watt=[6.041E-005]. See Input-Output Reference Manual for valid range.",
    "   ** Warning ** Check input. Pump nominal power or motor efficiency is set to 0, for pump={87D6C87C-1D08-4C6A-B711-53A8A1A02E74}",
    "   ** Warning ** Output:Meter: invalid Key Name=\"DISTRICTCOOLING:FACILITY\" - not found.",
    "   ** Warning ** Output:Meter: invalid Key Name=\"DISTRICTHEATING:FACILITY\" - not found.",
    "   ** Warning ** Output:Meter:MeterFileOnly: invalid Key Name=\"COAL:FACILITY\" - not found.",
    "   ** Warning ** Output:Meter:MeterFileOnly: invalid Key Name=\"COGENERATION:COAL\" - not found.",
    "   ** Warning ** Output:Meter:MeterFileOnly: invalid Key Name=\"COGENERATION:DISTRICTCOOLING\" - not found.",
    "   ** Warning ** Output:Meter:MeterFileOnly: invalid Key Name=\"COGENERATION:DISTRICTHEATING\" - not found.",
    "   ** Warning ** Output:Meter:MeterFileOnly: invalid Key Name=\"COGENERATION:ELECTRICITY\" - not found.",
    "   ** Warning ** Output:Meter:MeterFileOnly: invalid Key Name=\"COGENERATION:NATURALGAS\" - not found.",
    "   ** Warning ** Output:Meter:MeterFileOnly: invalid Key Name=\"COOLING:COAL\" - not found.",
    "   ** Warning ** Output:Meter:MeterFileOnly: invalid Key Name=\"COOLING:DISTRICTCOOLING\" - not found.",
    "   ** Warning ** Output:Meter:MeterFileOnly: invalid Key Name=\"COOLING:DISTRICTHEATING\" - not found.",
    "   ** Warning ** Output:Meter:MeterFileOnly: invalid Key Name=\"COOLING:NATURALGAS\" - not found.",
    "   ** Warning ** Output:Meter:MeterFileOnly: invalid Key Name=\"DISTRICTCOOLING:FACILITY\" - not found.",
    "   ** Warning ** Output:Meter:MeterFileOnly: invalid Key Name=\"DISTRICTHEATING:FACILITY\" - not found.",
    "   ** Warning ** Output:Meter:MeterFileOnly: invalid Key Name=\"EXTERIOREQUIPMENT:COAL\" - not found.",
    "   ** Warning ** Output:Meter:MeterFileOnly: invalid Key Name=\"EXTERIOREQUIPMENT:DISTRICTCOOLING\" - not found.",
    "   ** Warning ** Output:Meter:MeterFileOnly: invalid Key Name=\"EXTERIOREQUIPMENT:DISTRICTHEATING\" - not found.",
    "   ** Warning ** Output:Meter:MeterFileOnly: invalid Key Name=\"EXTERIOREQUIPMENT:ELECTRICITY\" - not found.",
    "   ** Warning ** Output:Meter:MeterFileOnly: invalid Key Name=\"EXTERIOREQUIPMENT:NATURALGAS\" - not found.",
    "   ** Warning ** Output:Meter:MeterFileOnly: invalid Key Name=\"EXTERIORLIGHTS:COAL\" - not found.",
    "   ** Warning ** Output:Meter:MeterFileOnly: invalid Key Name=\"EXTERIORLIGHTS:DISTRICTCOOLING\" - not found.",
    "   ** Warning ** Output:Meter:MeterFileOnly: invalid Key Name=\"EXTERIORLIGHTS:DISTRICTHEATING\" - not found.",
    "   ** Warning ** Output:Meter:MeterFileOnly: invalid Key Name=\"EXTERIORLIGHTS:ELECTRICITY\" - not found.",
    "   ** Warning ** Output:Meter:MeterFileOnly: invalid Key Name=\"EXTERIORLIGHTS:NATURALGAS\" - not found.",
    "   ** Warning ** Output:Meter:MeterFileOnly: invalid Key Name=\"FANS:COAL\" - not found.",
    "   ** Warning ** Output:Meter:MeterFileOnly: invalid Key Name=\"FANS:DISTRICTCOOLING\" - not found.",
    "   ** Warning ** Output:Meter:MeterFileOnly: invalid Key Name=\"FANS:DISTRICTHEATING\" - not found.",
    "   ** Warning ** Output:Meter:MeterFileOnly: invalid Key Name=\"FANS:NATURALGAS\" - not found.",
    "   ** Warning ** Output:Meter:MeterFileOnly: invalid Key Name=\"HEATING:COAL\" - not found.",
    "   ** Warning ** Output:Meter:MeterFileOnly: invalid Key Name=\"HEATING:DISTRICTCOOLING\" - not found.",
    "   ** Warning ** Output:Meter:MeterFileOnly: invalid Key Name=\"HEATING:DISTRICTHEATING\" - not found.",
    "   ** Warning ** Output:Meter:MeterFileOnly: invalid Key Name=\"HEATRECOVERY:COAL\" - not found.",
    "   ** Warning ** Output:Meter:MeterFileOnly: invalid Key Name=\"HEATRECOVERY:DISTRICTCOOLING\" - not found.",
    "   ** Warning ** Output:Meter:MeterFileOnly: invalid Key Name=\"HEATRECOVERY:DISTRICTHEATING\" - not found.",
    "   ** Warning ** Output:Meter:MeterFileOnly: invalid Key Name=\"HEATRECOVERY:ELECTRICITY\" - not found.",
    "   ** Warning ** Output:Meter:MeterFileOnly: invalid Key Name=\"HEATRECOVERY:NATURALGAS\" - not found.",
    "   ** Warning ** Output:Meter:MeterFileOnly: invalid Key Name=\"HEATREJECTION:COAL\" - not found.",
    "   ** Warning ** Output:Meter:MeterFileOnly: invalid Key Name=\"HEATREJECTION:DISTRICTCOOLING\" - not found.",
    "   ** Warning ** Output:Meter:MeterFileOnly: invalid Key Name=\"HEATREJECTION:DISTRICTHEATING\" - not found.",
    "   ** Warning ** Output:Meter:MeterFileOnly: invalid Key Name=\"HEATREJECTION:ELECTRICITY\" - not found.",
    "   ** Warning ** Output:Meter:MeterFileOnly: invalid Key Name=\"HEATREJECTION:NATURALGAS\" - not found.",
    "   ** Warning ** Output:Meter:MeterFileOnly: invalid Key Name=\"HUMIDIFIER:COAL\" - not found.",
    "   ** Warning ** Output:Meter:MeterFileOnly: invalid Key Name=\"HUMIDIFIER:DISTRICTCOOLING\" - not found.",
    "   ** Warning ** Output:Meter:MeterFileOnly: invalid Key Name=\"HUMIDIFIER:DISTRICTHEATING\" - not found.",
    "   ** Warning ** Output:Meter:MeterFileOnly: invalid Key Name=\"HUMIDIFIER:ELECTRICITY\" - not found.",
    "   ** Warning ** Output:Meter:MeterFileOnly: invalid Key Name=\"HUMIDIFIER:NATURALGAS\" - not found.",
    "   ** Warning ** Output:Meter:MeterFileOnly: invalid Key Name=\"INTERIOREQUIPMENT:COAL\" - not found.",
    "   ** Warning ** Output:Meter:MeterFileOnly: invalid Key Name=\"INTERIOREQUIPMENT:DISTRICTCOOLING\" - not found.",
    "   ** Warning ** Output:Meter:MeterFileOnly: invalid Key Name=\"INTERIOREQUIPMENT:DISTRICTHEATING\" - not found.",
    "   ** Warning ** Output:Meter:MeterFileOnly: invalid Key Name=\"INTERIOREQUIPMENT:NATURALGAS\" - not found.",
    "   ** Warning ** Output:Meter:MeterFileOnly: invalid Key Name=\"INTERIORLIGHTS:COAL\" - not found.",
    "   ** Warning ** Output:Meter:MeterFileOnly: invalid Key Name=\"INTERIORLIGHTS:DISTRICTCOOLING\" - not found.",
    "   ** Warning ** Output:Meter:MeterFileOnly: invalid Key Name=\"INTERIORLIGHTS:DISTRICTHEATING\" - not found.",
    "   ** Warning ** Output:Meter:MeterFileOnly: invalid Key Name=\"INTERIORLIGHTS:NATURALGAS\" - not found.",
    "   ** Warning ** Output:Meter:MeterFileOnly: invalid Key Name=\"INTERNAL TRANSPORT:INTERIOREQUIPMENT:ELECTRICITY\" - not found.",
    "   ** Warning ** Output:Meter:MeterFileOnly: invalid Key Name=\"NONCOMPLIANCELTG:INTERIORLIGHTS:ELECTRICITY\" - not found.",
    "   ** Warning ** Output:Meter:MeterFileOnly: invalid Key Name=\"NONREG LTG:EXTERIORLIGHTS:ELECTRICITY\" - not found.",
    "   ** Warning ** Output:Meter:MeterFileOnly: invalid Key Name=\"PROCESS:EXTERIOREQUIPMENT:ELECTRICITY\" - not found.",
    "   ** Warning ** Output:Meter:MeterFileOnly: invalid Key Name=\"PROCESS:EXTERIOREQUIPMENT:NATURALGAS\" - not found.",
    "   ** Warning ** Output:Meter:MeterFileOnly: invalid Key Name=\"PROCESS:INTERIOREQUIPMENT:ELECTRICITY\" - not found.",
    "   ** Warning ** Output:Meter:MeterFileOnly: invalid Key Name=\"PROCESS:INTERIOREQUIPMENT:NATURALGAS\" - not found.",
    "   ** Warning ** Output:Meter:MeterFileOnly: invalid Key Name=\"PUMPS:COAL\" - not found.",
    "   ** Warning ** Output:Meter:MeterFileOnly: invalid Key Name=\"PUMPS:DISTRICTCOOLING\" - not found.",
    "   ** Warning ** Output:Meter:MeterFileOnly: invalid Key Name=\"PUMPS:DISTRICTHEATING\" - not found.",
    "   ** Warning ** Output:Meter:MeterFileOnly: invalid Key Name=\"PUMPS:NATURALGAS\" - not found.",
    "   ** Warning ** Output:Meter:MeterFileOnly: invalid Key Name=\"RECEPTACLE:EXTERIOREQUIPMENT:ELECTRICITY\" - not found.",
    "   ** Warning ** Output:Meter:MeterFileOnly: invalid Key Name=\"RECEPTACLE:EXTERIOREQUIPMENT:NATURALGAS\" - not found.",
    "   ** Warning ** Output:Meter:MeterFileOnly: invalid Key Name=\"RECEPTACLE:INTERIOREQUIPMENT:NATURALGAS\" - not found.",
    "   ** Warning ** Output:Meter:MeterFileOnly: invalid Key Name=\"REFRIG:EXTERIOREQUIPMENT:ELECTRICITY\" - not found.",
    "   ** Warning ** Output:Meter:MeterFileOnly: invalid Key Name=\"REFRIG:INTERIOREQUIPMENT:ELECTRICITY\" - not found.",
    "   ** Warning ** Output:Meter:MeterFileOnly: invalid Key Name=\"REFRIGERATION:COAL\" - not found.",
    "   ** Warning ** Output:Meter:MeterFileOnly: invalid Key Name=\"REFRIGERATION:DISTRICTCOOLING\" - not found.",
    "   ** Warning ** Output:Meter:MeterFileOnly: invalid Key Name=\"REFRIGERATION:DISTRICTHEATING\" - not found.",
    "   ** Warning ** Output:Meter:MeterFileOnly: invalid Key Name=\"REFRIGERATION:ELECTRICITY\" - not found.",
    "   ** Warning ** Output:Meter:MeterFileOnly: invalid Key Name=\"REFRIGERATION:NATURALGAS\" - not found.",
    "   ** Warning ** Output:Meter:MeterFileOnly: invalid Key Name=\"REG LTG:EXTERIORLIGHTS:ELECTRICITY\" - not found.",
    "   ** Warning ** Output:Meter:MeterFileOnly: invalid Key Name=\"WATERSYSTEMS:COAL\" - not found.",
    "   ** Warning ** Output:Meter:MeterFileOnly: invalid Key Name=\"WATERSYSTEMS:DISTRICTCOOLING\" - not found.",
    "   ** Warning ** Output:Meter:MeterFileOnly: invalid Key Name=\"WATERSYSTEMS:DISTRICTHEATING\" - not found.",
    "   ** Warning ** Output:Meter:MeterFileOnly: invalid Key Name=\"WATERSYSTEMS:ELECTRICITY\" - not found.",
    "   ** Warning ** Output:Meter:MeterFileOnly requested for \"Electricity:Facility\" (TimeStep), already on \"Output:Meter\". Will report to both eplusout.eso and eplusout.mtr",
    "   ************* Testing Individual Branch Integrity",
    "   ************* All Branches passed integrity testing",
    "   ************* Testing Individual Supply Air Path Integrity",
    "   ************* All Supply Air Paths passed integrity testing",
    "   ************* Testing Individual Return Air Path Integrity",
    "   ************* All Return Air Paths passed integrity testing",
    "   ************* No node connection errors were found.",
    "   ************* Beginning Simulation",
    "   ** Warning ** Processing Monthly Tabular Reports: Variable names not valid for this simulation",
    "   **   ~~~   ** ...use Output:Diagnostics,DisplayExtraWarnings; to show more details on individual variables.",
    "   ** Warning ** SimHVAC: Maximum iterations (20) exceeded for all HVAC loops, at SACRAMENTO-EXECUTIVE_724830_CZ2010, 01/02 07:38 - 07:45",
    "   **   ~~~   ** The solution for one or more of the Air Loop HVAC systems did not appear to converge",
    "   **   ~~~   ** ...use Output:Diagnostics,DisplayExtraWarnings; to show more details on each max iteration exceeded.",
    "   ** Warning ** SimHVAC: Maximum iterations (20) exceeded for all HVAC loops, at SACRAMENTO-EXECUTIVE_724830_CZ2010, 01/05 09:11 - 09:13",
    "   **   ~~~   ** The solution for one or more of the Air Loop HVAC systems did not appear to converge",
    "   ** Warning ** SimHVAC: Maximum iterations (20) exceeded for all HVAC loops, at SACRAMENTO-EXECUTIVE_724830_CZ2010, 01/05 23:04 - 23:08",
    "   **   ~~~   ** The solution for one or more of the Air Loop HVAC systems did not appear to converge",
    "   ** Warning ** SimHVAC: Maximum iterations (20) exceeded for all HVAC loops, at SACRAMENTO-EXECUTIVE_724830_CZ2010, 01/06 07:00 - 07:15",
    "   **   ~~~   ** The solution for one or more of the Air Loop HVAC systems did not appear to converge",
    "   ** Warning ** SimHVAC: Maximum iterations (20) exceeded for all HVAC loops, at SACRAMENTO-EXECUTIVE_724830_CZ2010, 01/07 08:15 - 08:30",
    "   **   ~~~   ** The solution for one or more of the Air Loop HVAC systems did not appear to converge",
    "   **   ~~~   ** The solution for one or more plant systems did not appear to converge",
    "   ** Warning ** SimHVAC: Maximum iterations (20) exceeded for all HVAC loops, at SACRAMENTO-EXECUTIVE_724830_CZ2010, 01/07 08:30 - 08:45",
    "   **   ~~~   ** The solution for one or more of the Air Loop HVAC systems did not appear to converge",
    "   **   ~~~   ** The solution for one or more plant systems did not appear to converge",
    "   ** Warning ** SimHVAC: Maximum iterations (20) exceeded for all HVAC loops, at SACRAMENTO-EXECUTIVE_724830_CZ2010, 01/07 08:45 - 09:00",
    "   **   ~~~   ** The solution for one or more of the Air Loop HVAC systems did not appear to converge",
    "   **   ~~~   ** The solution for one or more plant systems did not appear to converge",
    "   ** Warning ** SimHVAC: Maximum iterations (20) exceeded for all HVAC loops, at SACRAMENTO-EXECUTIVE_724830_CZ2010, 01/07 09:15 - 09:30",
    "   **   ~~~   ** The solution for one or more of the Air Loop HVAC systems did not appear to converge",
    "   **   ~~~   ** The solution for one or more plant systems did not appear to converge",
    "   ** Warning ** SimHVAC: Maximum iterations (20) exceeded for all HVAC loops, at SACRAMENTO-EXECUTIVE_724830_CZ2010, 01/07 09:25 - 09:30",
    "   **   ~~~   ** The solution for one or more of the Air Loop HVAC systems did not appear to converge",
    "   **   ~~~   ** The solution for one or more plant systems did not appear to converge",
    "   ** Warning ** SimHVAC: Maximum iterations (20) exceeded for all HVAC loops, at SACRAMENTO-EXECUTIVE_724830_CZ2010, 01/07 09:30 - 09:45",
    "   **   ~~~   ** The solution for one or more of the Air Loop HVAC systems did not appear to converge",
    "   **   ~~~   ** The solution for one or more plant systems did not appear to converge",
    "   ** Warning ** SimHVAC: Maximum iterations (20) exceeded for all HVAC loops, at SACRAMENTO-EXECUTIVE_724830_CZ2010, 01/07 09:30 - 09:38",
    "   **   ~~~   ** The solution for one or more of the Air Loop HVAC systems did not appear to converge",
    "   ** Warning ** SimHVAC: Maximum iterations (20) exceeded for all HVAC loops, at SACRAMENTO-EXECUTIVE_724830_CZ2010, 01/07 09:38 - 09:45",
    "   **   ~~~   ** The solution for one or more of the Air Loop HVAC systems did not appear to converge",
    "   **   ~~~   ** The solution for one or more plant systems did not appear to converge",
    "   ** Warning ** SimHVAC: Maximum iterations (20) exceeded for all HVAC loops, at SACRAMENTO-EXECUTIVE_724830_CZ2010, 01/07 09:45 - 09:52",
    "   **   ~~~   ** The solution for one or more of the Air Loop HVAC systems did not appear to converge",
    "   **   ~~~   ** The solution for one or more plant systems did not appear to converge",
    "   ** Warning ** SimHVAC: Maximum iterations (20) exceeded for all HVAC loops, at SACRAMENTO-EXECUTIVE_724830_CZ2010, 01/07 11:15 - 11:22",
    "   **   ~~~   ** The solution for one or more of the Air Loop HVAC systems did not appear to converge",
    "   **   ~~~   ** The solution for one or more plant systems did not appear to converge",
    "   ** Warning ** The resource referenced by LifeCycleCost:UsePriceEscalation= \"U.S. AVG  COMMERCIAL-ELECTRICITY\" has no energy cost. ",
    "   **   ~~~   ** ... It is likely that the wrong resource is used. The resource should match the meter used in Utility:Tariff.",
    "   ** Warning ** The resource referenced by LifeCycleCost:UsePriceEscalation= \"U.S. AVG  COMMERCIAL-DISTILLATE OIL\" has no energy cost. ",
    "   **   ~~~   ** ... It is likely that the wrong resource is used. The resource should match the meter used in Utility:Tariff.",
    "   ** Warning ** The resource referenced by LifeCycleCost:UsePriceEscalation= \"U.S. AVG  COMMERCIAL-RESIDUAL OIL\" has no energy cost. ",
    "   **   ~~~   ** ... It is likely that the wrong resource is used. The resource should match the meter used in Utility:Tariff.",
    "   ** Warning ** The resource referenced by LifeCycleCost:UsePriceEscalation= \"U.S. AVG  COMMERCIAL-NATURAL GAS\" has no energy cost. ",
    "   **   ~~~   ** ... It is likely that the wrong resource is used. The resource should match the meter used in Utility:Tariff.",
    "   ** Warning ** The resource referenced by LifeCycleCost:UsePriceEscalation= \"U.S. AVG  COMMERCIAL-COAL\" has no energy cost. ",
    "   **   ~~~   ** ... It is likely that the wrong resource is used. The resource should match the meter used in Utility:Tariff.",
    "   ************* Simulation Error Summary *************",
    "   ************* There are 17 unused schedules in input.",
    "   ************* There are 17 unused week schedules in input.",
    "   ************* There are 40 unused day schedules in input.",
    "   ************* Use Output:Diagnostics,DisplayUnusedSchedules; to see them.",
    "   *************",
    "   ************* ===== Recurring Error Summary =====",
    "   ************* The following recurring error messages occurred.",
    "   *************",
    "   *************  ** Warning ** SimHVAC: Exceeding Maximum iterations for all HVAC loops, during SACRAMENTO-EXECUTIVE_724830_CZ2010 continues",
    "   *************  **   ~~~   **   This error occurred 341 total times;",
    "   *************  **   ~~~   **   during Warmup 0 times;",
    "   *************  **   ~~~   **   during Sizing 0 times.",
    "   *************",
    "   ************* EnergyPlus Warmup Error Summary. During Warmup: 0 Warning; 0 Severe Errors.",
    "   ************* EnergyPlus Sizing Error Summary. During Sizing: 74 Warning; 0 Severe Errors.",
    "   ************* EnergyPlus Completed Successfully-- 542 Warning; 0 Severe Errors; "
  ],
  "file_paths": [
    "/home/julien/Software/Others/OpenStudio-resources/testruns/010012_SchSml_CECStd.xml/generated_files",
    "./files",
    "./weather",
    "../../files",
    "../../weather",
    "./"
  ],
  "seed_file": "in.osm",
  "steps": [
    {
      "arguments": {
      },
      "measure_dir_name": "openstudio_results",
      "result": {
        "measure_class_name": "OpenStudioResults",
        "measure_display_name": "OpenStudio Results",
        "measure_name": "openstudio_results",
        "measure_taxonomy": "Reporting.QAQC",
        "measure_type": "ReportingMeasure",
        "measure_uid": "a25386cd-60e4-46bc-8b11-c755f379d916",
        "measure_version_id": "02ad7007-fe7b-4747-bd7a-29d697c4d91a",
        "measure_version_modified": "20180711T183039Z",
        "measure_xml_checksum": "557BF06F",
        "stderr": "",
        "stdout": "",
        "step_errors": [

        ],
        "step_final_condition": "Generated report with 19 sections to ./report.html.",
        "step_info": [

        ],
        "step_initial_condition": "Gathering data from EnergyPlus SQL file and OSM model.",
        "step_result": "Success",
        "step_values": [
          {
            "name": "building_summary_section",
            "value": true
          },
          {
            "name": "annual_overview_section",
            "value": true
          },
          {
            "name": "monthly_overview_section",
            "value": true
          },
          {
            "name": "utility_bills_rates_section",
            "value": true
          },
          {
            "name": "envelope_section_section",
            "value": true
          },
          {
            "name": "space_type_breakdown_section",
            "value": true
          },
          {
            "name": "space_type_details_section",
            "value": true
          },
          {
            "name": "interior_lighting_section",
            "value": true
          },
          {
            "name": "plug_loads_section",
            "value": true
          },
          {
            "name": "exterior_light_section",
            "value": true
          },
          {
            "name": "water_use_section",
            "value": true
          },
          {
            "name": "hvac_load_profile",
            "value": true
          },
          {
            "name": "zone_condition_section",
            "value": true
          },
          {
            "name": "zone_summary_section",
            "value": true
          },
          {
            "name": "zone_equipment_detail_section",
            "value": true
          },
          {
            "name": "air_loops_detail_section",
            "value": true
          },
          {
            "name": "plant_loops_detail_section",
            "value": true
          },
          {
            "name": "outdoor_air_section",
            "value": true
          },
          {
            "name": "cost_summary_section",
            "value": true
          },
          {
            "name": "source_energy_section",
            "value": true
          },
          {
            "name": "schedules_overview_section",
            "value": true
          },
          {
            "name": "standards_gem_version",
            "value": "0.2.12"
          },
          {
            "name": "workflow_gem_version",
            "value": "2.1.0"
          },
          {
            "display_name": "Primary School",
            "name": "building_name",
            "value": "n/a"
          },
          {
            "name": "total_site_energy",
            "units": "kBtu",
            "value": 1446880.75
          },
          {
            "name": "net_site_energy",
            "units": "kBtu",
            "value": 1446880.75
          },
          {
            "name": "total_building_area",
            "units": "ft^2",
            "value": 24412.66
          },
          {
            "name": "total_site_eui",
            "units": "kBtu/ft^2",
            "value": 59.27
          },
          {
            "name": "eui",
            "units": "kBtu/ft^2",
            "value": 59.27
          },
          {
            "name": "unmet_hours_during_heating",
            "units": "hr",
            "value": 421.0
          },
          {
            "name": "unmet_hours_during_cooling",
            "units": "hr",
            "value": 2.25
          },
          {
            "name": "unmet_hours_during_occupied_heating",
            "units": "hr",
            "value": 82.5
          },
          {
            "name": "unmet_hours_during_occupied_cooling",
            "units": "hr",
            "value": 0.0
          },
          {
            "name": "unmet_hours_tolerance_heating",
            "units": "F",
            "value": 1.01
          },
          {
            "name": "unmet_hours_tolerance_cooling",
            "units": "F",
            "value": 1.01
          },
          {
            "name": "electricity_heating_ip",
            "units": "kWh",
            "value": 53.45
          },
          {
            "name": "electricity_cooling_ip",
            "units": "kWh",
            "value": 32977.07
          },
          {
            "name": "electricity_interior_lighting_ip",
            "units": "kWh",
            "value": 30649.79
          },
          {
            "name": "electricity_exterior_lighting_ip",
            "units": "kWh",
            "value": 0.0
          },
          {
            "name": "electricity_interior_equipment_ip",
            "units": "kWh",
            "value": 51621.83
          },
          {
            "name": "electricity_exterior_equipment_ip",
            "units": "kWh",
            "value": 0.0
          },
          {
            "name": "electricity_fans_ip",
            "units": "kWh",
            "value": 16269.66
          },
          {
            "name": "electricity_pumps_ip",
            "units": "kWh",
            "value": 2213.03
          },
          {
            "name": "electricity_heat_rejection_ip",
            "units": "kWh",
            "value": 0.0
          },
          {
            "name": "electricity_humidification_ip",
            "units": "kWh",
            "value": 0.0
          },
          {
            "name": "electricity_heat_recovery_ip",
            "units": "kWh",
            "value": 0.0
          },
          {
            "name": "electricity_water_systems_ip",
            "units": "kWh",
            "value": 0.0
          },
          {
            "name": "electricity_refrigeration_ip",
            "units": "kWh",
            "value": 0.0
          },
          {
            "name": "electricity_generators_ip",
            "units": "kWh",
            "value": 0.0
          },
          {
            "name": "electricity_ip",
            "units": "kWh",
            "value": 133784.84
          },
          {
            "name": "natural_gas_heating_ip",
            "units": "MBtu",
            "value": 827.07
          },
          {
            "name": "natural_gas_cooling_ip",
            "units": "MBtu",
            "value": 0.0
          },
          {
            "name": "natural_gas_interior_lighting_ip",
            "units": "MBtu",
            "value": 0.0
          },
          {
            "name": "natural_gas_exterior_lighting_ip",
            "units": "MBtu",
            "value": 0.0
          },
          {
            "name": "natural_gas_interior_equipment_ip",
            "units": "MBtu",
            "value": 0.0
          },
          {
            "name": "natural_gas_exterior_equipment_ip",
            "units": "MBtu",
            "value": 0.0
          },
          {
            "name": "natural_gas_fans_ip",
            "units": "MBtu",
            "value": 0.0
          },
          {
            "name": "natural_gas_pumps_ip",
            "units": "MBtu",
            "value": 0.0
          },
          {
            "name": "natural_gas_heat_rejection_ip",
            "units": "MBtu",
            "value": 0.0
          },
          {
            "name": "natural_gas_humidification_ip",
            "units": "MBtu",
            "value": 0.0
          },
          {
            "name": "natural_gas_heat_recovery_ip",
            "units": "MBtu",
            "value": 0.0
          },
          {
            "name": "natural_gas_water_systems_ip",
            "units": "MBtu",
            "value": 163.31
          },
          {
            "name": "natural_gas_refrigeration_ip",
            "units": "MBtu",
            "value": 0.0
          },
          {
            "name": "natural_gas_generators_ip",
            "units": "MBtu",
            "value": 0.0
          },
          {
            "name": "natural_gas_ip",
            "units": "MBtu",
            "value": 990.38
          },
          {
            "name": "gasoline_heating_ip",
            "units": "MBtu",
            "value": 0.0
          },
          {
            "name": "gasoline_cooling_ip",
            "units": "MBtu",
            "value": 0.0
          },
          {
            "name": "gasoline_interior_lighting_ip",
            "units": "MBtu",
            "value": 0.0
          },
          {
            "name": "gasoline_exterior_lighting_ip",
            "units": "MBtu",
            "value": 0.0
          },
          {
            "name": "gasoline_interior_equipment_ip",
            "units": "MBtu",
            "value": 0.0
          },
          {
            "name": "gasoline_exterior_equipment_ip",
            "units": "MBtu",
            "value": 0.0
          },
          {
            "name": "gasoline_fans_ip",
            "units": "MBtu",
            "value": 0.0
          },
          {
            "name": "gasoline_pumps_ip",
            "units": "MBtu",
            "value": 0.0
          },
          {
            "name": "gasoline_heat_rejection_ip",
            "units": "MBtu",
            "value": 0.0
          },
          {
            "name": "gasoline_humidification_ip",
            "units": "MBtu",
            "value": 0.0
          },
          {
            "name": "gasoline_heat_recovery_ip",
            "units": "MBtu",
            "value": 0.0
          },
          {
            "name": "gasoline_water_systems_ip",
            "units": "MBtu",
            "value": 0.0
          },
          {
            "name": "gasoline_refrigeration_ip",
            "units": "MBtu",
            "value": 0.0
          },
          {
            "name": "gasoline_generators_ip",
            "units": "MBtu",
            "value": 0.0
          },
          {
            "name": "gasoline_ip",
            "units": "MBtu",
            "value": 0.0
          },
          {
            "name": "diesel_heating_ip",
            "units": "MBtu",
            "value": 0.0
          },
          {
            "name": "diesel_cooling_ip",
            "units": "MBtu",
            "value": 0.0
          },
          {
            "name": "diesel_interior_lighting_ip",
            "units": "MBtu",
            "value": 0.0
          },
          {
            "name": "diesel_exterior_lighting_ip",
            "units": "MBtu",
            "value": 0.0
          },
          {
            "name": "diesel_interior_equipment_ip",
            "units": "MBtu",
            "value": 0.0
          },
          {
            "name": "diesel_exterior_equipment_ip",
            "units": "MBtu",
            "value": 0.0
          },
          {
            "name": "diesel_fans_ip",
            "units": "MBtu",
            "value": 0.0
          },
          {
            "name": "diesel_pumps_ip",
            "units": "MBtu",
            "value": 0.0
          },
          {
            "name": "diesel_heat_rejection_ip",
            "units": "MBtu",
            "value": 0.0
          },
          {
            "name": "diesel_humidification_ip",
            "units": "MBtu",
            "value": 0.0
          },
          {
            "name": "diesel_heat_recovery_ip",
            "units": "MBtu",
            "value": 0.0
          },
          {
            "name": "diesel_water_systems_ip",
            "units": "MBtu",
            "value": 0.0
          },
          {
            "name": "diesel_refrigeration_ip",
            "units": "MBtu",
            "value": 0.0
          },
          {
            "name": "diesel_generators_ip",
            "units": "MBtu",
            "value": 0.0
          },
          {
            "name": "diesel_ip",
            "units": "MBtu",
            "value": 0.0
          },
          {
            "name": "coal_heating_ip",
            "units": "MBtu",
            "value": 0.0
          },
          {
            "name": "coal_cooling_ip",
            "units": "MBtu",
            "value": 0.0
          },
          {
            "name": "coal_interior_lighting_ip",
            "units": "MBtu",
            "value": 0.0
          },
          {
            "name": "coal_exterior_lighting_ip",
            "units": "MBtu",
            "value": 0.0
          },
          {
            "name": "coal_interior_equipment_ip",
            "units": "MBtu",
            "value": 0.0
          },
          {
            "name": "coal_exterior_equipment_ip",
            "units": "MBtu",
            "value": 0.0
          },
          {
            "name": "coal_fans_ip",
            "units": "MBtu",
            "value": 0.0
          },
          {
            "name": "coal_pumps_ip",
            "units": "MBtu",
            "value": 0.0
          },
          {
            "name": "coal_heat_rejection_ip",
            "units": "MBtu",
            "value": 0.0
          },
          {
            "name": "coal_humidification_ip",
            "units": "MBtu",
            "value": 0.0
          },
          {
            "name": "coal_heat_recovery_ip",
            "units": "MBtu",
            "value": 0.0
          },
          {
            "name": "coal_water_systems_ip",
            "units": "MBtu",
            "value": 0.0
          },
          {
            "name": "coal_refrigeration_ip",
            "units": "MBtu",
            "value": 0.0
          },
          {
            "name": "coal_generators_ip",
            "units": "MBtu",
            "value": 0.0
          },
          {
            "name": "coal_ip",
            "units": "MBtu",
            "value": 0.0
          },
          {
            "name": "fuel_oil_no_1_heating_ip",
            "units": "MBtu",
            "value": 0.0
          },
          {
            "name": "fuel_oil_no_1_cooling_ip",
            "units": "MBtu",
            "value": 0.0
          },
          {
            "name": "fuel_oil_no_1_interior_lighting_ip",
            "units": "MBtu",
            "value": 0.0
          },
          {
            "name": "fuel_oil_no_1_exterior_lighting_ip",
            "units": "MBtu",
            "value": 0.0
          },
          {
            "name": "fuel_oil_no_1_interior_equipment_ip",
            "units": "MBtu",
            "value": 0.0
          },
          {
            "name": "fuel_oil_no_1_exterior_equipment_ip",
            "units": "MBtu",
            "value": 0.0
          },
          {
            "name": "fuel_oil_no_1_fans_ip",
            "units": "MBtu",
            "value": 0.0
          },
          {
            "name": "fuel_oil_no_1_pumps_ip",
            "units": "MBtu",
            "value": 0.0
          },
          {
            "name": "fuel_oil_no_1_heat_rejection_ip",
            "units": "MBtu",
            "value": 0.0
          },
          {
            "name": "fuel_oil_no_1_humidification_ip",
            "units": "MBtu",
            "value": 0.0
          },
          {
            "name": "fuel_oil_no_1_heat_recovery_ip",
            "units": "MBtu",
            "value": 0.0
          },
          {
            "name": "fuel_oil_no_1_water_systems_ip",
            "units": "MBtu",
            "value": 0.0
          },
          {
            "name": "fuel_oil_no_1_refrigeration_ip",
            "units": "MBtu",
            "value": 0.0
          },
          {
            "name": "fuel_oil_no_1_generators_ip",
            "units": "MBtu",
            "value": 0.0
          },
          {
            "name": "fuel_oil_no_1_ip",
            "units": "MBtu",
            "value": 0.0
          },
          {
            "name": "fuel_oil_no_2_heating_ip",
            "units": "MBtu",
            "value": 0.0
          },
          {
            "name": "fuel_oil_no_2_cooling_ip",
            "units": "MBtu",
            "value": 0.0
          },
          {
            "name": "fuel_oil_no_2_interior_lighting_ip",
            "units": "MBtu",
            "value": 0.0
          },
          {
            "name": "fuel_oil_no_2_exterior_lighting_ip",
            "units": "MBtu",
            "value": 0.0
          },
          {
            "name": "fuel_oil_no_2_interior_equipment_ip",
            "units": "MBtu",
            "value": 0.0
          },
          {
            "name": "fuel_oil_no_2_exterior_equipment_ip",
            "units": "MBtu",
            "value": 0.0
          },
          {
            "name": "fuel_oil_no_2_fans_ip",
            "units": "MBtu",
            "value": 0.0
          },
          {
            "name": "fuel_oil_no_2_pumps_ip",
            "units": "MBtu",
            "value": 0.0
          },
          {
            "name": "fuel_oil_no_2_heat_rejection_ip",
            "units": "MBtu",
            "value": 0.0
          },
          {
            "name": "fuel_oil_no_2_humidification_ip",
            "units": "MBtu",
            "value": 0.0
          },
          {
            "name": "fuel_oil_no_2_heat_recovery_ip",
            "units": "MBtu",
            "value": 0.0
          },
          {
            "name": "fuel_oil_no_2_water_systems_ip",
            "units": "MBtu",
            "value": 0.0
          },
          {
            "name": "fuel_oil_no_2_refrigeration_ip",
            "units": "MBtu",
            "value": 0.0
          },
          {
            "name": "fuel_oil_no_2_generators_ip",
            "units": "MBtu",
            "value": 0.0
          },
          {
            "name": "fuel_oil_no_2_ip",
            "units": "MBtu",
            "value": 0.0
          },
          {
            "name": "propane_heating_ip",
            "units": "MBtu",
            "value": 0.0
          },
          {
            "name": "propane_cooling_ip",
            "units": "MBtu",
            "value": 0.0
          },
          {
            "name": "propane_interior_lighting_ip",
            "units": "MBtu",
            "value": 0.0
          },
          {
            "name": "propane_exterior_lighting_ip",
            "units": "MBtu",
            "value": 0.0
          },
          {
            "name": "propane_interior_equipment_ip",
            "units": "MBtu",
            "value": 0.0
          },
          {
            "name": "propane_exterior_equipment_ip",
            "units": "MBtu",
            "value": 0.0
          },
          {
            "name": "propane_fans_ip",
            "units": "MBtu",
            "value": 0.0
          },
          {
            "name": "propane_pumps_ip",
            "units": "MBtu",
            "value": 0.0
          },
          {
            "name": "propane_heat_rejection_ip",
            "units": "MBtu",
            "value": 0.0
          },
          {
            "name": "propane_humidification_ip",
            "units": "MBtu",
            "value": 0.0
          },
          {
            "name": "propane_heat_recovery_ip",
            "units": "MBtu",
            "value": 0.0
          },
          {
            "name": "propane_water_systems_ip",
            "units": "MBtu",
            "value": 0.0
          },
          {
            "name": "propane_refrigeration_ip",
            "units": "MBtu",
            "value": 0.0
          },
          {
            "name": "propane_generators_ip",
            "units": "MBtu",
            "value": 0.0
          },
          {
            "name": "propane_ip",
            "units": "MBtu",
            "value": 0.0
          },
          {
            "name": "other_fuel_1_heating_ip",
            "units": "MBtu",
            "value": 0.0
          },
          {
            "name": "other_fuel_1_cooling_ip",
            "units": "MBtu",
            "value": 0.0
          },
          {
            "name": "other_fuel_1_interior_lighting_ip",
            "units": "MBtu",
            "value": 0.0
          },
          {
            "name": "other_fuel_1_exterior_lighting_ip",
            "units": "MBtu",
            "value": 0.0
          },
          {
            "name": "other_fuel_1_interior_equipment_ip",
            "units": "MBtu",
            "value": 0.0
          },
          {
            "name": "other_fuel_1_exterior_equipment_ip",
            "units": "MBtu",
            "value": 0.0
          },
          {
            "name": "other_fuel_1_fans_ip",
            "units": "MBtu",
            "value": 0.0
          },
          {
            "name": "other_fuel_1_pumps_ip",
            "units": "MBtu",
            "value": 0.0
          },
          {
            "name": "other_fuel_1_heat_rejection_ip",
            "units": "MBtu",
            "value": 0.0
          },
          {
            "name": "other_fuel_1_humidification_ip",
            "units": "MBtu",
            "value": 0.0
          },
          {
            "name": "other_fuel_1_heat_recovery_ip",
            "units": "MBtu",
            "value": 0.0
          },
          {
            "name": "other_fuel_1_water_systems_ip",
            "units": "MBtu",
            "value": 0.0
          },
          {
            "name": "other_fuel_1_refrigeration_ip",
            "units": "MBtu",
            "value": 0.0
          },
          {
            "name": "other_fuel_1_generators_ip",
            "units": "MBtu",
            "value": 0.0
          },
          {
            "name": "other_fuel_1_ip",
            "units": "MBtu",
            "value": 0.0
          },
          {
            "name": "other_fuel_2_heating_ip",
            "units": "MBtu",
            "value": 0.0
          },
          {
            "name": "other_fuel_2_cooling_ip",
            "units": "MBtu",
            "value": 0.0
          },
          {
            "name": "other_fuel_2_interior_lighting_ip",
            "units": "MBtu",
            "value": 0.0
          },
          {
            "name": "other_fuel_2_exterior_lighting_ip",
            "units": "MBtu",
            "value": 0.0
          },
          {
            "name": "other_fuel_2_interior_equipment_ip",
            "units": "MBtu",
            "value": 0.0
          },
          {
            "name": "other_fuel_2_exterior_equipment_ip",
            "units": "MBtu",
            "value": 0.0
          },
          {
            "name": "other_fuel_2_fans_ip",
            "units": "MBtu",
            "value": 0.0
          },
          {
            "name": "other_fuel_2_pumps_ip",
            "units": "MBtu",
            "value": 0.0
          },
          {
            "name": "other_fuel_2_heat_rejection_ip",
            "units": "MBtu",
            "value": 0.0
          },
          {
            "name": "other_fuel_2_humidification_ip",
            "units": "MBtu",
            "value": 0.0
          },
          {
            "name": "other_fuel_2_heat_recovery_ip",
            "units": "MBtu",
            "value": 0.0
          },
          {
            "name": "other_fuel_2_water_systems_ip",
            "units": "MBtu",
            "value": 0.0
          },
          {
            "name": "other_fuel_2_refrigeration_ip",
            "units": "MBtu",
            "value": 0.0
          },
          {
            "name": "other_fuel_2_generators_ip",
            "units": "MBtu",
            "value": 0.0
          },
          {
            "name": "other_fuel_2_ip",
            "units": "MBtu",
            "value": 0.0
          },
          {
            "name": "district_cooling_heating_ip",
            "units": "MBtu",
            "value": 0.0
          },
          {
            "name": "district_cooling_cooling_ip",
            "units": "MBtu",
            "value": 0.0
          },
          {
            "name": "district_cooling_interior_lighting_ip",
            "units": "MBtu",
            "value": 0.0
          },
          {
            "name": "district_cooling_exterior_lighting_ip",
            "units": "MBtu",
            "value": 0.0
          },
          {
            "name": "district_cooling_interior_equipment_ip",
            "units": "MBtu",
            "value": 0.0
          },
          {
            "name": "district_cooling_exterior_equipment_ip",
            "units": "MBtu",
            "value": 0.0
          },
          {
            "name": "district_cooling_fans_ip",
            "units": "MBtu",
            "value": 0.0
          },
          {
            "name": "district_cooling_pumps_ip",
            "units": "MBtu",
            "value": 0.0
          },
          {
            "name": "district_cooling_heat_rejection_ip",
            "units": "MBtu",
            "value": 0.0
          },
          {
            "name": "district_cooling_humidification_ip",
            "units": "MBtu",
            "value": 0.0
          },
          {
            "name": "district_cooling_heat_recovery_ip",
            "units": "MBtu",
            "value": 0.0
          },
          {
            "name": "district_cooling_water_systems_ip",
            "units": "MBtu",
            "value": 0.0
          },
          {
            "name": "district_cooling_refrigeration_ip",
            "units": "MBtu",
            "value": 0.0
          },
          {
            "name": "district_cooling_generators_ip",
            "units": "MBtu",
            "value": 0.0
          },
          {
            "name": "district_cooling_ip",
            "units": "MBtu",
            "value": 0.0
          },
          {
            "name": "district_heating_heating_ip",
            "units": "MBtu",
            "value": 0.0
          },
          {
            "name": "district_heating_cooling_ip",
            "units": "MBtu",
            "value": 0.0
          },
          {
            "name": "district_heating_interior_lighting_ip",
            "units": "MBtu",
            "value": 0.0
          },
          {
            "name": "district_heating_exterior_lighting_ip",
            "units": "MBtu",
            "value": 0.0
          },
          {
            "name": "district_heating_interior_equipment_ip",
            "units": "MBtu",
            "value": 0.0
          },
          {
            "name": "district_heating_exterior_equipment_ip",
            "units": "MBtu",
            "value": 0.0
          },
          {
            "name": "district_heating_fans_ip",
            "units": "MBtu",
            "value": 0.0
          },
          {
            "name": "district_heating_pumps_ip",
            "units": "MBtu",
            "value": 0.0
          },
          {
            "name": "district_heating_heat_rejection_ip",
            "units": "MBtu",
            "value": 0.0
          },
          {
            "name": "district_heating_humidification_ip",
            "units": "MBtu",
            "value": 0.0
          },
          {
            "name": "district_heating_heat_recovery_ip",
            "units": "MBtu",
            "value": 0.0
          },
          {
            "name": "district_heating_water_systems_ip",
            "units": "MBtu",
            "value": 0.0
          },
          {
            "name": "district_heating_refrigeration_ip",
            "units": "MBtu",
            "value": 0.0
          },
          {
            "name": "district_heating_generators_ip",
            "units": "MBtu",
            "value": 0.0
          },
          {
            "name": "district_heating_ip",
            "units": "MBtu",
            "value": 0.0
          },
          {
            "name": "water_heating_ip",
            "units": "MBtu",
            "value": 0.0
          },
          {
            "name": "water_cooling_ip",
            "units": "MBtu",
            "value": 0.0
          },
          {
            "name": "water_interior_lighting_ip",
            "units": "MBtu",
            "value": 0.0
          },
          {
            "name": "water_exterior_lighting_ip",
            "units": "MBtu",
            "value": 0.0
          },
          {
            "name": "water_interior_equipment_ip",
            "units": "MBtu",
            "value": 0.0
          },
          {
            "name": "water_exterior_equipment_ip",
            "units": "MBtu",
            "value": 0.0
          },
          {
            "name": "water_fans_ip",
            "units": "MBtu",
            "value": 0.0
          },
          {
            "name": "water_pumps_ip",
            "units": "MBtu",
            "value": 0.0
          },
          {
            "name": "water_heat_rejection_ip",
            "units": "MBtu",
            "value": 0.0
          },
          {
            "name": "water_humidification_ip",
            "units": "MBtu",
            "value": 0.0
          },
          {
            "name": "water_heat_recovery_ip",
            "units": "MBtu",
            "value": 0.0
          },
          {
            "name": "water_water_systems_ip",
            "units": "MBtu",
            "value": 0.0
          },
          {
            "name": "water_refrigeration_ip",
            "units": "MBtu",
            "value": 0.0
          },
          {
            "name": "water_generators_ip",
            "units": "MBtu",
            "value": 0.0
          },
          {
            "name": "water_ip",
            "units": "MBtu",
            "value": 0.0
          },
          {
            "name": "base_cz_12_flat_nonres_wood_framing_and_other_roof_u_034",
            "units": "ft^2",
            "value": 24412.66
          },
          {
            "name": "base_cz_12_nonres_metal_frame_wall_u_062",
            "units": "ft^2",
            "value": 8986.69
          },
          {
            "name": "base_all_cz_fixed_window_u_36",
            "units": "ft^2",
            "value": 4963.39
          },
          {
            "name": "gross_window_wall_ratio",
            "units": "%",
            "value": 35.58
          },
          {
            "name": "gross_window_wall_ratio_conditioned",
            "units": "%",
            "value": 35.58
          },
          {
            "name": "skylight_roof_ratio",
            "units": "%",
            "value": 0.0
          },
          {
            "name": "space_type_no_space_type",
            "units": "ft^2",
            "value": 24412.66
          },
          {
            "name": "exterior_lighting_total_power",
            "units": "W",
            "value": 0.0
          },
          {
            "name": "exterior_lighting_total_consumption",
            "units": "kWh",
            "value": 424038.89
          },
          {
            "name": "cafeteria_spc_water_use_equipment",
            "units": "gal/min",
            "value": 0.92
          },
          {
            "name": "mech_elec_spc_water_use_equipment",
            "units": "gal/min",
            "value": 0.0
          },
          {
            "name": "office_spc_water_use_equipment",
            "units": "gal/min",
            "value": 0.03
          },
          {
            "name": "wing_1_side_1_class_1_spc_water_use_equipment",
            "units": "gal/min",
            "value": 0.06
          },
          {
            "name": "wing_1_side_1_class_2_spc_water_use_equipment",
            "units": "gal/min",
            "value": 0.06
          },
          {
            "name": "wing_1_side_1_class_3_spc_water_use_equipment",
            "units": "gal/min",
            "value": 0.06
          },
          {
            "name": "wing_1_side_1_class_4_spc_water_use_equipment",
            "units": "gal/min",
            "value": 0.06
          },
          {
            "name": "wing_1_side_2_class_1_spc_water_use_equipment",
            "units": "gal/min",
            "value": 0.06
          },
          {
            "name": "wing_1_side_2_class_2_spc_water_use_equipment",
            "units": "gal/min",
            "value": 0.06
          },
          {
            "name": "wing_1_side_2_class_3_spc_water_use_equipment",
            "units": "gal/min",
            "value": 0.06
          },
          {
            "name": "wing_1_side_2_class_4_spc_water_use_equipment",
            "units": "gal/min",
            "value": 0.06
          },
          {
            "name": "wing_2_side_1_class_1_spc_water_use_equipment",
            "units": "gal/min",
            "value": 0.06
          },
          {
            "name": "wing_2_side_1_class_2_spc_water_use_equipment",
            "units": "gal/min",
            "value": 0.06
          },
          {
            "name": "wing_2_side_1_class_3_spc_water_use_equipment",
            "units": "gal/min",
            "value": 0.06
          },
          {
            "name": "wing_2_side_1_class_4_spc_water_use_equipment",
            "units": "gal/min",
            "value": 0.06
          },
          {
            "name": "wing_2_side_2_class_1_spc_water_use_equipment",
            "units": "gal/min",
            "value": 0.06
          },
          {
            "name": "wing_2_side_2_class_2_spc_water_use_equipment",
            "units": "gal/min",
            "value": 0.06
          },
          {
            "name": "wing_2_side_2_class_3_spc_water_use_equipment",
            "units": "gal/min",
            "value": 0.06
          },
          {
            "name": "wing_2_side_2_class_4_spc_water_use_equipment",
            "units": "gal/min",
            "value": 0.06
          },
          {
            "name": "inflation_approach",
            "value": "Constant Dollar"
          },
          {
            "name": "analysis_length",
            "units": "yrs",
            "value": 25
          },
          {
            "name": "annual_peak_electric_demand",
            "units": "kW",
            "value": 91.93
          },
          {
            "name": "first_year_capital_cost",
            "units": "$",
            "value": 0.0
          },
          {
            "name": "annual_utility_cost",
            "units": "$",
            "value": 0.0
          },
          {
            "name": "total_lifecycle_cost",
            "units": "$",
            "value": 0.0
          }
        ],
        "step_warnings": [
          "Annual Overview section failed and was skipped because: Optional not initialized. Detail on error follows.",
          "/home/julien/Software/Others/OpenStudio-resources/measures/openstudio_results/measure.rb:237:in `eval'\n/home/julien/Software/Others/OpenStudio-resources/measures/openstudio_results/resources/os_lib_reporting.rb:501:in `block in output_data_end_use_table'\n/home/julien/Software/Others/OpenStudio-resources/measures/openstudio_results/resources/os_lib_reporting.rb:491:in `each'\n/home/julien/Software/Others/OpenStudio-resources/measures/openstudio_results/resources/os_lib_reporting.rb:491:in `output_data_end_use_table'\n/home/julien/Software/Others/OpenStudio-resources/measures/openstudio_results/resources/os_lib_reporting.rb:258:in `annual_overview_section'\n(eval):1:in `block in run'\n/home/julien/Software/Others/OpenStudio-resources/measures/openstudio_results/measure.rb:237:in `eval'\n/home/julien/Software/Others/OpenStudio-resources/measures/openstudio_results/measure.rb:237:in `block in run'\n/home/julien/Software/Others/OpenStudio-resources/measures/openstudio_results/measure.rb:233:in `each'\n/home/julien/Software/Others/OpenStudio-resources/measures/openstudio_results/measure.rb:233:in `run'\n:/ruby/2.5.0/gems/openstudio-workflow-2.1.0/lib/openstudio/workflow/util/measure.rb:519:in `apply_measure'\n:/ruby/2.5.0/gems/openstudio-workflow-2.1.0/lib/openstudio/workflow/util/measure.rb:114:in `block in apply_measures'\n:/ruby/2.5.0/gems/openstudio-workflow-2.1.0/lib/openstudio/workflow/util/measure.rb:67:in `each_index'\n:/ruby/2.5.0/gems/openstudio-workflow-2.1.0/lib/openstudio/workflow/util/measure.rb:67:in `apply_measures'\n:/ruby/2.5.0/gems/openstudio-workflow-2.1.0/lib/openstudio/workflow/jobs/run_reporting_measures.rb:105:in `perform'\n:/ruby/2.5.0/gems/openstudio-workflow-2.1.0/lib/openstudio/workflow/run.rb:292:in `step'\n:/ruby/2.5.0/gems/openstudio-workflow-2.1.0/lib/openstudio/workflow/run.rb:234:in `run'\n:/openstudio_cli.rb:971:in `execute'\n:/openstudio_cli.rb:761:in `execute'\n:/openstudio_cli.rb:1755:in `<main>'\neval:175:in `eval'\neval:175:in `require_embedded_absolute'\neval:160:in `block in require_embedded'\neval:154:in `each'\neval:154:in `require_embedded'\neval:113:in `require'\neval:3:in `<main>'",
          "Air Loops Detail section failed and was skipped because: undefined method `minimumSetpointTemperature' for #<OpenStudio::Model::OptionalSetpointManagerWarmest:0x00005635d8096de8>. Detail on error follows.",
          "/home/julien/Software/Others/OpenStudio-resources/measures/openstudio_results/measure.rb:237:in `eval'\n/home/julien/Software/Others/OpenStudio-resources/measures/openstudio_results/resources/os_lib_reporting.rb:906:in `air_loop_component_summary_logic'\n/home/julien/Software/Others/OpenStudio-resources/measures/openstudio_results/resources/os_lib_reporting.rb:991:in `block (2 levels) in air_loops_detail_section'\n/home/julien/Software/Others/OpenStudio-resources/measures/openstudio_results/resources/os_lib_reporting.rb:984:in `each'\n/home/julien/Software/Others/OpenStudio-resources/measures/openstudio_results/resources/os_lib_reporting.rb:984:in `block in air_loops_detail_section'\n/home/julien/Software/Others/OpenStudio-resources/measures/openstudio_results/resources/os_lib_reporting.rb:969:in `each'\n/home/julien/Software/Others/OpenStudio-resources/measures/openstudio_results/resources/os_lib_reporting.rb:969:in `air_loops_detail_section'\n(eval):1:in `block in run'\n/home/julien/Software/Others/OpenStudio-resources/measures/openstudio_results/measure.rb:237:in `eval'\n/home/julien/Software/Others/OpenStudio-resources/measures/openstudio_results/measure.rb:237:in `block in run'\n/home/julien/Software/Others/OpenStudio-resources/measures/openstudio_results/measure.rb:233:in `each'\n/home/julien/Software/Others/OpenStudio-resources/measures/openstudio_results/measure.rb:233:in `run'\n:/ruby/2.5.0/gems/openstudio-workflow-2.1.0/lib/openstudio/workflow/util/measure.rb:519:in `apply_measure'\n:/ruby/2.5.0/gems/openstudio-workflow-2.1.0/lib/openstudio/workflow/util/measure.rb:114:in `block in apply_measures'\n:/ruby/2.5.0/gems/openstudio-workflow-2.1.0/lib/openstudio/workflow/util/measure.rb:67:in `each_index'\n:/ruby/2.5.0/gems/openstudio-workflow-2.1.0/lib/openstudio/workflow/util/measure.rb:67:in `apply_measures'\n:/ruby/2.5.0/gems/openstudio-workflow-2.1.0/lib/openstudio/workflow/jobs/run_reporting_measures.rb:105:in `perform'\n:/ruby/2.5.0/gems/openstudio-workflow-2.1.0/lib/openstudio/workflow/run.rb:292:in `step'\n:/ruby/2.5.0/gems/openstudio-workflow-2.1.0/lib/openstudio/workflow/run.rb:234:in `run'\n:/openstudio_cli.rb:971:in `execute'\n:/openstudio_cli.rb:761:in `execute'\n:/openstudio_cli.rb:1755:in `<main>'\neval:175:in `eval'\neval:175:in `require_embedded_absolute'\neval:160:in `block in require_embedded'\neval:154:in `each'\neval:154:in `require_embedded'\neval:113:in `require'\neval:3:in `<main>'"
        ]
      }
    }
  ],
  "weather_file": "../../weatherdata/USA_IL_Chicago-OHare.Intl.AP.725300_TMY3.epw"
}