{
  "completed_status": "Success",
  "current_step": 1,
  "eplusout_err": [
    "Program Version,EnergyPlus, Version 9.1.0-08d2e308bb, ",
    "   ************* Beginning Zone Sizing Calculations",
    "   ** Warning ** ProcessScheduleInput: Schedule:Day:Interval=\"{285858BD-8A8D-4941-B1EA-E01007FFCA8C}\", Blank Schedule Type Limits Name input -- will not be validated.",
    "   ** Warning ** ProcessScheduleInput: Schedule:Day:Interval=\"{44CEF02C-DB01-473A-BDAB-7AAFC6563616}\", Blank Schedule Type Limits Name input -- will not be validated.",
    "   ** Warning ** ProcessScheduleInput: Schedule:Day:Interval=\"{830C2F98-A60F-4A8F-BF35-C94ABE61D8BF}\", Blank Schedule Type Limits Name input -- will not be validated.",
    "   ** Warning ** ProcessScheduleInput: Schedule:Day:Interval=\"{833862BF-E932-4B14-ACF9-1576AB9EC147}\", Blank Schedule Type Limits Name input -- will not be validated.",
    "   ** Warning ** ProcessScheduleInput: Schedule:Day:Interval=\"{C9D96773-00CB-4986-8794-956C4E8E388D}\", Blank Schedule Type Limits Name input -- will not be validated.",
    "   ** Warning ** ProcessScheduleInput: Schedule:Year=\"CORE_ZN TARGET SHW TEMP\", Blank Schedule Type Limits Name input -- will not be validated.",
    "   ** Warning ** ProcessScheduleInput: Schedule:Year=\"PERIMETER_ZN_1 TARGET SHW TEMP\", Blank Schedule Type Limits Name input -- will not be validated.",
    "   ** Warning ** ProcessScheduleInput: Schedule:Year=\"PERIMETER_ZN_2 TARGET SHW TEMP\", Blank Schedule Type Limits Name input -- will not be validated.",
    "   ** Warning ** ProcessScheduleInput: Schedule:Year=\"PERIMETER_ZN_3 TARGET SHW TEMP\", Blank Schedule Type Limits Name input -- will not be validated.",
    "   ** Warning ** ProcessScheduleInput: Schedule:Year=\"PERIMETER_ZN_4 TARGET SHW TEMP\", Blank Schedule Type Limits Name input -- will not be validated.",
    "   ** Warning ** ProcessScheduleInput: Schedule:Constant=\"ALWAYS OFF DISCRETE\", Blank Schedule Type Limits Name input -- will not be validated.",
    "   ** Warning ** ProcessScheduleInput: Schedule:Constant=\"ALWAYS ON CONTINUOUS\", Blank Schedule Type Limits Name input -- will not be validated.",
    "   ** Warning ** Weather file location will be used rather than entered (IDF) Location object.",
    "   **   ~~~   ** ..Location object={0376B7FC-DF6A-4ECB-BB18-060A5DC1CFEC}",
    "   **   ~~~   ** ..Weather File Location=Chicago Ohare Intl Ap IL USA TMY3 WMO#=725300",
    "   **   ~~~   ** ..due to location differences, Latitude difference=[3.40] degrees, Longitude difference=[33.57] degrees.",
    "   **   ~~~   ** ..Time Zone difference=[2.0] hour(s), Elevation difference=[4972.68] percent, [197.04] meters.",
    "   ************* Note that the following warning(s) may/will occur if you have not enclosed your zone completely.",
    "   ** Warning ** Entered Zone Volumes differ from calculated zone volume(s).",
    "   **   ~~~   ** ...use Output:Diagnostics,DisplayExtraWarnings; to show more details on individual zones.",
    "   ** Warning ** CalculateZoneVolume: 6 zones are not fully enclosed. For more details use:  Output:Diagnostics,DisplayExtrawarnings; ",
    "   ** Warning ** GetSimpleAirModelInputs: ZoneInfiltration:DesignFlowRate=\"ATTIC SPACE INFILTRATION DESIGN FLOW RATE 1\", Design Flow Rate Calculation Method specifies Flow per Exterior Surface Area, but Exterior Wall Area = 0.  0 Infiltration will result.",
    "   ** Warning ** GetSimpleAirModelInputs: ZoneInfiltration:DesignFlowRate=\"CORE_ZN SPACE INFILTRATION DESIGN FLOW RATE 1\", Design Flow Rate Calculation Method specifies Flow per Exterior Surface Area, but Exterior Wall Area = 0.  0 Infiltration will result.",
    "   ************* Beginning System Sizing Calculations",
    "   ************* Beginning Plant Sizing Calculations",
    "   ** Warning ** The Standard Ratings is calculated for Coil:Cooling:DX:SingleSpeed = COREZNCOOLINGCOIL but not at the AHRI test condition due to curve out of bound.",
    "   **   ~~~   **  Review the Standard Ratings calculations in the Engineering Reference for this coil type. Also, use Output:Diagnostics, DisplayExtraWarnings for further guidance.",
    "   ** Warning ** The Standard Ratings is calculated for Coil:Cooling:DX:SingleSpeed = PERIM1ZNCOOLINGCOIL but not at the AHRI test condition due to curve out of bound.",
    "   **   ~~~   **  Review the Standard Ratings calculations in the Engineering Reference for this coil type. Also, use Output:Diagnostics, DisplayExtraWarnings for further guidance.",
    "   ** Warning ** The Standard Ratings is calculated for Coil:Cooling:DX:SingleSpeed = PERIM2ZNCOOLINGCOIL but not at the AHRI test condition due to curve out of bound.",
    "   **   ~~~   **  Review the Standard Ratings calculations in the Engineering Reference for this coil type. Also, use Output:Diagnostics, DisplayExtraWarnings for further guidance.",
    "   ** Warning ** The Standard Ratings is calculated for Coil:Cooling:DX:SingleSpeed = PERIM3ZNCOOLINGCOIL but not at the AHRI test condition due to curve out of bound.",
    "   **   ~~~   **  Review the Standard Ratings calculations in the Engineering Reference for this coil type. Also, use Output:Diagnostics, DisplayExtraWarnings for further guidance.",
    "   ** Warning ** The Standard Ratings is calculated for Coil:Cooling:DX:SingleSpeed = PERIM4ZNCOOLINGCOIL but not at the AHRI test condition due to curve out of bound.",
    "   **   ~~~   **  Review the Standard Ratings calculations in the Engineering Reference for this coil type. Also, use Output:Diagnostics, DisplayExtraWarnings for further guidance.",
    "   ** Warning ** Water heater = WATERHEATER1:  Recovery Efficiency and Energy Factor could not be calculated during the test for standard ratings",
    "   **   ~~~   ** Setpoint was never recovered and/or heater never turned on",
    "   ** Warning ** Check input. Pump nominal power or motor efficiency is set to 0, for pump={55ABC940-9344-403D-8EEE-4F6DFCE95C26}",
    "   ** Warning ** Output:Meter: invalid Key Name=\"DISTRICTCOOLING:FACILITY\" - not found.",
    "   ** Warning ** Output:Meter: invalid Key Name=\"DISTRICTHEATING:FACILITY\" - not found.",
    "   ** Warning ** Output:Meter:MeterFileOnly: invalid Key Name=\"REFRIG:EXTERIOREQUIPMENT:ELECTRICITY\" - not found.",
    "   ** Warning ** Output:Meter:MeterFileOnly: invalid Key Name=\"FANS:DISTRICTCOOLING\" - not found.",
    "   ** Warning ** Output:Meter:MeterFileOnly: invalid Key Name=\"HEATRECOVERY:GAS\" - not found.",
    "   ** Warning ** Output:Meter:MeterFileOnly: invalid Key Name=\"COGENERATION:DISTRICTCOOLING\" - not found.",
    "   ** Warning ** Output:Meter:MeterFileOnly: invalid Key Name=\"INTERIORLIGHTS:DISTRICTHEATING\" - not found.",
    "   ** Warning ** Output:Meter:MeterFileOnly: invalid Key Name=\"INTERIOREQUIPMENT:GAS\" - not found.",
    "   ** Warning ** Output:Meter:MeterFileOnly: invalid Key Name=\"EXTERIORLIGHTS:DISTRICTHEATING\" - not found.",
    "   ** Warning ** Output:Meter:MeterFileOnly: invalid Key Name=\"PUMPS:DISTRICTHEATING\" - not found.",
    "   ** Warning ** Output:Meter:MeterFileOnly: invalid Key Name=\"COGENERATION:DISTRICTHEATING\" - not found.",
    "   ** Warning ** Output:Meter:MeterFileOnly: invalid Key Name=\"INTERIOREQUIPMENT:DISTRICTHEATING\" - not found.",
    "   ** Warning ** Output:Meter:MeterFileOnly: invalid Key Name=\"FANS:DISTRICTHEATING\" - not found.",
    "   ** Warning ** Output:Meter:MeterFileOnly: invalid Key Name=\"PUMPS:DISTRICTCOOLING\" - not found.",
    "   ** Warning ** Output:Meter:MeterFileOnly: invalid Key Name=\"COOLING:DISTRICTCOOLING\" - not found.",
    "   ** Warning ** Output:Meter:MeterFileOnly: invalid Key Name=\"PROCESS:INTERIOREQUIPMENT:ELECTRICITY\" - not found.",
    "   ** Warning ** Output:Meter:MeterFileOnly: invalid Key Name=\"EXTERIOREQUIPMENT:DISTRICTCOOLING\" - not found.",
    "   ** Warning ** Output:Meter:MeterFileOnly: invalid Key Name=\"PROCESS:INTERIOREQUIPMENT:GAS\" - not found.",
    "   ** Warning ** Output:Meter:MeterFileOnly: invalid Key Name=\"RECEPTACLE:INTERIOREQUIPMENT:GAS\" - not found.",
    "   ** Warning ** Output:Meter:MeterFileOnly: invalid Key Name=\"INTERIOREQUIPMENT:DISTRICTCOOLING\" - not found.",
    "   ** Warning ** Output:Meter:MeterFileOnly: invalid Key Name=\"REFRIG:INTERIOREQUIPMENT:ELECTRICITY\" - not found.",
    "   ** Warning ** Output:Meter:MeterFileOnly: invalid Key Name=\"COGENERATION:GAS\" - not found.",
    "   ** Warning ** Output:Meter:MeterFileOnly: invalid Key Name=\"REFRIGERATION:GAS\" - not found.",
    "   ** Warning ** Output:Meter:MeterFileOnly: invalid Key Name=\"INTERIORLIGHTS:DISTRICTCOOLING\" - not found.",
    "   ** Warning ** Output:Meter:MeterFileOnly: invalid Key Name=\"HEATING:DISTRICTCOOLING\" - not found.",
    "   ** Warning ** Output:Meter:MeterFileOnly: invalid Key Name=\"PROCESS:EXTERIOREQUIPMENT:ELECTRICITY\" - not found.",
    "   ** Warning ** Output:Meter:MeterFileOnly: invalid Key Name=\"COOLING:DISTRICTHEATING\" - not found.",
    "   ** Warning ** Output:Meter:MeterFileOnly: invalid Key Name=\"HEATING:DISTRICTHEATING\" - not found.",
    "   ** Warning ** Output:Meter:MeterFileOnly: invalid Key Name=\"EXTERIORLIGHTS:DISTRICTCOOLING\" - not found.",
    "   ** Warning ** Output:Meter:MeterFileOnly: invalid Key Name=\"HEATREJECTION:DISTRICTCOOLING\" - not found.",
    "   ** Warning ** Output:Meter:MeterFileOnly: invalid Key Name=\"NONREG LTG:EXTERIORLIGHTS:ELECTRICITY\" - not found.",
    "   ** Warning ** Output:Meter:MeterFileOnly: invalid Key Name=\"HEATRECOVERY:DISTRICTCOOLING\" - not found.",
    "   ** Warning ** Output:Meter:MeterFileOnly: invalid Key Name=\"DISTRICTCOOLING:FACILITY\" - not found.",
    "   ** Warning ** Output:Meter:MeterFileOnly: invalid Key Name=\"INTERNAL TRANSPORT:INTERIOREQUIPMENT:ELECTRICITY\" - not found.",
    "   ** Warning ** Output:Meter:MeterFileOnly: invalid Key Name=\"COOLING:GAS\" - not found.",
    "   ** Warning ** Output:Meter:MeterFileOnly: invalid Key Name=\"WATERSYSTEMS:DISTRICTCOOLING\" - not found.",
    "   ** Warning ** Output:Meter:MeterFileOnly: invalid Key Name=\"HUMIDIFIER:GAS\" - not found.",
    "   ** Warning ** Output:Meter:MeterFileOnly: invalid Key Name=\"WATERSYSTEMS:ELECTRICITY\" - not found.",
    "   ** Warning ** Output:Meter:MeterFileOnly: invalid Key Name=\"EXTERIOREQUIPMENT:ELECTRICITY\" - not found.",
    "   ** Warning ** Output:Meter:MeterFileOnly: invalid Key Name=\"HEATREJECTION:GAS\" - not found.",
    "   ** Warning ** Output:Meter:MeterFileOnly: invalid Key Name=\"PUMPS:GAS\" - not found.",
    "   ** Warning ** Output:Meter:MeterFileOnly: invalid Key Name=\"EXTERIOREQUIPMENT:GAS\" - not found.",
    "   ** Warning ** Output:Meter:MeterFileOnly: invalid Key Name=\"INTERIORLIGHTS:GAS\" - not found.",
    "   ** Warning ** Output:Meter:MeterFileOnly: invalid Key Name=\"HUMIDIFIER:DISTRICTHEATING\" - not found.",
    "   ** Warning ** Output:Meter:MeterFileOnly: invalid Key Name=\"COGENERATION:ELECTRICITY\" - not found.",
    "   ** Warning ** Output:Meter:MeterFileOnly: invalid Key Name=\"HEATRECOVERY:ELECTRICITY\" - not found.",
    "   ** Warning ** Output:Meter:MeterFileOnly: invalid Key Name=\"HUMIDIFIER:ELECTRICITY\" - not found.",
    "   ** Warning ** Output:Meter:MeterFileOnly: invalid Key Name=\"HEATREJECTION:ELECTRICITY\" - not found.",
    "   ** Warning ** Output:Meter:MeterFileOnly: invalid Key Name=\"EXTERIORLIGHTS:ELECTRICITY\" - not found.",
    "   ** Warning ** Output:Meter:MeterFileOnly: invalid Key Name=\"FANS:GAS\" - not found.",
    "   ** Warning ** Output:Meter:MeterFileOnly: invalid Key Name=\"REFRIGERATION:DISTRICTCOOLING\" - not found.",
    "   ** Warning ** Output:Meter:MeterFileOnly: invalid Key Name=\"EXTERIORLIGHTS:GAS\" - not found.",
    "   ** Warning ** Output:Meter:MeterFileOnly: invalid Key Name=\"HUMIDIFIER:DISTRICTCOOLING\" - not found.",
    "   ** Warning ** Output:Meter:MeterFileOnly: invalid Key Name=\"DISTRICTHEATING:FACILITY\" - not found.",
    "   ** Warning ** Output:Meter:MeterFileOnly: invalid Key Name=\"REFRIGERATION:DISTRICTHEATING\" - not found.",
    "   ** Warning ** Output:Meter:MeterFileOnly: invalid Key Name=\"NONCOMPLIANCELTG:INTERIORLIGHTS:ELECTRICITY\" - not found.",
    "   ** Warning ** Output:Meter:MeterFileOnly: invalid Key Name=\"REFRIGERATION:ELECTRICITY\" - not found.",
    "   ** Warning ** Output:Meter:MeterFileOnly: invalid Key Name=\"PROCESS:EXTERIOREQUIPMENT:GAS\" - not found.",
    "   ** Warning ** Output:Meter:MeterFileOnly: invalid Key Name=\"REG LTG:EXTERIORLIGHTS:ELECTRICITY\" - not found.",
    "   ** Warning ** Output:Meter:MeterFileOnly: invalid Key Name=\"EXTERIOREQUIPMENT:DISTRICTHEATING\" - not found.",
    "   ** Warning ** Output:Meter:MeterFileOnly: invalid Key Name=\"RECEPTACLE:EXTERIOREQUIPMENT:ELECTRICITY\" - not found.",
    "   ** Warning ** Output:Meter:MeterFileOnly: invalid Key Name=\"WATERSYSTEMS:DISTRICTHEATING\" - not found.",
    "   ** Warning ** Output:Meter:MeterFileOnly: invalid Key Name=\"HEATREJECTION:DISTRICTHEATING\" - not found.",
    "   ** Warning ** Output:Meter:MeterFileOnly: invalid Key Name=\"HEATRECOVERY:DISTRICTHEATING\" - not found.",
    "   ** Warning ** Output:Meter:MeterFileOnly: invalid Key Name=\"RECEPTACLE:EXTERIOREQUIPMENT:GAS\" - not found.",
    "   ** Warning ** Output:Meter:MeterFileOnly requested for \"Electricity:Facility\" (TimeStep), already on \"Output:Meter\". Will report to both eplusout.eso and eplusout.mtr",
    "   ************* Testing Individual Branch Integrity",
    "   ************* All Branches passed integrity testing",
    "   ************* Testing Individual Supply Air Path Integrity",
    "   ************* All Supply Air Paths passed integrity testing",
    "   ************* Testing Individual Return Air Path Integrity",
    "   ************* All Return Air Paths passed integrity testing",
    "   ************* No node connection errors were found.",
    "   ************* Beginning Simulation",
    "   ** Warning ** Processing Monthly Tabular Reports: Variable names not valid for this simulation",
    "   **   ~~~   ** ...use Output:Diagnostics,DisplayExtraWarnings; to show more details on individual variables.",
    "   ** Warning ** CalcDoe2DXCoil: Coil:Cooling:DX:SingleSpeed \"PERIM2ZNCOOLINGCOIL\" - Air-cooled condenser inlet dry-bulb temperature below 0 C. Outdoor dry-bulb temperature = -11.10",
    "   **   ~~~   **  ... Occurrence info = SACRAMENTO-EXECUTIVE_724830_CZ2010, 01/01 03:53 - 04:00",
    "   **   ~~~   ** ... Operation at low ambient temperatures may require special performance curves.",
    "   ** Warning ** CalcDoe2DXCoil: Coil:Cooling:DX:SingleSpeed \"PERIM2ZNCOOLINGCOIL\" - Full load outlet air dry-bulb temperature < 2C. This indicates the possibility of coil frost/freeze. Outlet temperature = 0.46 C.",
    "   **   ~~~   **  ...Occurrence info = SACRAMENTO-EXECUTIVE_724830_CZ2010, 01/01 03:53 - 04:00",
    "   **   ~~~   ** ... Possible reasons for low outlet air dry-bulb temperatures are: This DX coil",
    "   **   ~~~   **    1) may have a low inlet air dry-bulb temperature. Inlet air temperature = 15.425 C.",
    "   **   ~~~   **    2) may have a low air flow rate per watt of cooling capacity. Check inputs.",
    "   **   ~~~   **    3) is used as part of a HX assisted cooling coil which uses a high sensible effectiveness. Check inputs.",
    "   ** Warning ** CalcDoe2DXCoil: Coil:Cooling:DX:SingleSpeed \"PERIM4ZNCOOLINGCOIL\" - Air-cooled condenser inlet dry-bulb temperature below 0 C. Outdoor dry-bulb temperature = -11.10",
    "   **   ~~~   **  ... Occurrence info = SACRAMENTO-EXECUTIVE_724830_CZ2010, 01/01 03:53 - 04:00",
    "   **   ~~~   ** ... Operation at low ambient temperatures may require special performance curves.",
    "   ** Warning ** CalcDoe2DXCoil: Coil:Cooling:DX:SingleSpeed \"PERIM4ZNCOOLINGCOIL\" - Full load outlet air dry-bulb temperature < 2C. This indicates the possibility of coil frost/freeze. Outlet temperature = -0.51 C.",
    "   **   ~~~   **  ...Occurrence info = SACRAMENTO-EXECUTIVE_724830_CZ2010, 01/01 03:53 - 04:00",
    "   **   ~~~   ** ... Possible reasons for low outlet air dry-bulb temperatures are: This DX coil",
    "   **   ~~~   **    1) may have a low inlet air dry-bulb temperature. Inlet air temperature = 15.397 C.",
    "   **   ~~~   **    2) may have a low air flow rate per watt of cooling capacity. Check inputs.",
    "   **   ~~~   **    3) is used as part of a HX assisted cooling coil which uses a high sensible effectiveness. Check inputs.",
    "   ** Warning ** CalcDoe2DXCoil: Coil:Cooling:DX:SingleSpeed \"PERIM3ZNCOOLINGCOIL\" - Air-cooled condenser inlet dry-bulb temperature below 0 C. Outdoor dry-bulb temperature = -10.73",
    "   **   ~~~   **  ... Occurrence info = SACRAMENTO-EXECUTIVE_724830_CZ2010, 01/01 04:38 - 04:45",
    "   **   ~~~   ** ... Operation at low ambient temperatures may require special performance curves.",
    "   ** Warning ** CalcDoe2DXCoil: Coil:Cooling:DX:SingleSpeed \"PERIM3ZNCOOLINGCOIL\" - Full load outlet air dry-bulb temperature < 2C. This indicates the possibility of coil frost/freeze. Outlet temperature = -2.10 C.",
    "   **   ~~~   **  ...Occurrence info = SACRAMENTO-EXECUTIVE_724830_CZ2010, 01/01 04:38 - 04:45",
    "   **   ~~~   ** ... Possible reasons for low outlet air dry-bulb temperatures are: This DX coil",
    "   **   ~~~   **    1) may have a low inlet air dry-bulb temperature. Inlet air temperature = 15.463 C.",
    "   **   ~~~   **    2) may have a low air flow rate per watt of cooling capacity. Check inputs.",
    "   **   ~~~   **    3) is used as part of a HX assisted cooling coil which uses a high sensible effectiveness. Check inputs.",
    "   ** Warning ** CalcDoe2DXCoil: Coil:Cooling:DX:SingleSpeed \"PERIM1ZNCOOLINGCOIL\" - Air-cooled condenser inlet dry-bulb temperature below 0 C. Outdoor dry-bulb temperature = -10.60",
    "   **   ~~~   **  ... Occurrence info = SACRAMENTO-EXECUTIVE_724830_CZ2010, 01/01 04:53 - 05:00",
    "   **   ~~~   ** ... Operation at low ambient temperatures may require special performance curves.",
    "   ** Warning ** CalcDoe2DXCoil: Coil:Cooling:DX:SingleSpeed \"PERIM1ZNCOOLINGCOIL\" - Full load outlet air dry-bulb temperature < 2C. This indicates the possibility of coil frost/freeze. Outlet temperature = 0.98 C.",
    "   **   ~~~   **  ...Occurrence info = SACRAMENTO-EXECUTIVE_724830_CZ2010, 01/01 04:53 - 05:00",
    "   **   ~~~   ** ... Possible reasons for low outlet air dry-bulb temperatures are: This DX coil",
    "   **   ~~~   **    1) may have a low inlet air dry-bulb temperature. Inlet air temperature = 15.460 C.",
    "   **   ~~~   **    2) may have a low air flow rate per watt of cooling capacity. Check inputs.",
    "   **   ~~~   **    3) is used as part of a HX assisted cooling coil which uses a high sensible effectiveness. Check inputs.",
    "   ** Warning ** CalcDoe2DXCoil: Coil:Cooling:DX:SingleSpeed \"COREZNCOOLINGCOIL\" - Air-cooled condenser inlet dry-bulb temperature below 0 C. Outdoor dry-bulb temperature = -10.60",
    "   **   ~~~   **  ... Occurrence info = SACRAMENTO-EXECUTIVE_724830_CZ2010, 01/01 05:03 - 05:04",
    "   **   ~~~   ** ... Operation at low ambient temperatures may require special performance curves.",
    "   ** Warning ** CalcDoe2DXCoil: Coil:Cooling:DX:SingleSpeed \"COREZNCOOLINGCOIL\" - Full load outlet air dry-bulb temperature < 2C. This indicates the possibility of coil frost/freeze. Outlet temperature = -1.65 C.",
    "   **   ~~~   **  ...Occurrence info = SACRAMENTO-EXECUTIVE_724830_CZ2010, 01/04 06:30 - 06:34",
    "   **   ~~~   ** ... Possible reasons for low outlet air dry-bulb temperatures are: This DX coil",
    "   **   ~~~   **    1) may have a low inlet air dry-bulb temperature. Inlet air temperature = 12.827 C.",
    "   **   ~~~   **    2) may have a low air flow rate per watt of cooling capacity. Check inputs.",
    "   **   ~~~   **    3) is used as part of a HX assisted cooling coil which uses a high sensible effectiveness. Check inputs.",
    "   ** Warning ** Plant Loop: SHWFLUIDSYS1 Demand Side is storing excess heat the majority of the time.",
    "   ** Warning ** Plant Loop: SHWFLUIDSYS1 Supply Side is storing excess heat the majority of the time.",
    "   ** Warning ** The resource referenced by LifeCycleCost:UsePriceEscalation= \"U.S. AVG  COMMERCIAL-ELECTRICITY\" has no energy cost. ",
    "   **   ~~~   ** ... It is likely that the wrong resource is used. The resource should match the meter used in Utility:Tariff.",
    "   ** Warning ** The resource referenced by LifeCycleCost:UsePriceEscalation= \"U.S. AVG  COMMERCIAL-DISTILLATE OIL\" has no energy cost. ",
    "   **   ~~~   ** ... It is likely that the wrong resource is used. The resource should match the meter used in Utility:Tariff.",
    "   ** Warning ** The resource referenced by LifeCycleCost:UsePriceEscalation= \"U.S. AVG  COMMERCIAL-RESIDUAL OIL\" has no energy cost. ",
    "   **   ~~~   ** ... It is likely that the wrong resource is used. The resource should match the meter used in Utility:Tariff.",
    "   ** Warning ** The resource referenced by LifeCycleCost:UsePriceEscalation= \"U.S. AVG  COMMERCIAL-NATURAL GAS\" has no energy cost. ",
    "   **   ~~~   ** ... It is likely that the wrong resource is used. The resource should match the meter used in Utility:Tariff.",
    "   ** Warning ** The resource referenced by LifeCycleCost:UsePriceEscalation= \"U.S. AVG  COMMERCIAL-COAL\" has no energy cost. ",
    "   **   ~~~   ** ... It is likely that the wrong resource is used. The resource should match the meter used in Utility:Tariff.",
    "   ************* Simulation Error Summary *************",
    "   ************* There are 5 unused schedules in input.",
    "   ************* There are 5 unused week schedules in input.",
    "   ************* There are 7 unused day schedules in input.",
    "   ************* Use Output:Diagnostics,DisplayUnusedSchedules; to see them.",
    "   *************",
    "   ************* ===== Recurring Surface Error Summary =====",
    "   ************* The following surface error messages occurred.",
    "   *************",
    "   ************* Base Surface does not surround subsurface errors occuring...",
    "   ************* Check that the GlobalGeometryRules object is expressing the proper starting corner and direction [CounterClockwise/Clockwise]",
    "   *************",
    "   ** Warning ** Base surface does not surround subsurface (CHKSBS), Overlap Status=No-Overlap",
    "   **   ~~~   **   The base surround errors occurred 7 times.",
    "   **   ~~~   ** Surface \"PERIMETER_ZN_1_WALL_SOUTH\" misses SubSurface \"PERIMETER_ZN_1_WALL_SOUTH_DOOR\"",
    "   **   ~~~   ** Surface \"PERIMETER_ZN_1_WALL_SOUTH\" misses SubSurface \"PERIMETER_ZN_1_WALL_SOUTH_WINDOW_1\"",
    "   **   ~~~   ** Surface \"PERIMETER_ZN_1_WALL_SOUTH\" misses SubSurface \"PERIMETER_ZN_1_WALL_SOUTH_WINDOW_2\"",
    "   **   ~~~   ** Surface \"PERIMETER_ZN_1_WALL_SOUTH\" misses SubSurface \"PERIMETER_ZN_1_WALL_SOUTH_WINDOW_3\"",
    "   **   ~~~   ** Surface \"PERIMETER_ZN_1_WALL_SOUTH\" misses SubSurface \"PERIMETER_ZN_1_WALL_SOUTH_WINDOW_4\"",
    "   **   ~~~   ** Surface \"PERIMETER_ZN_1_WALL_SOUTH\" misses SubSurface \"PERIMETER_ZN_1_WALL_SOUTH_WINDOW_5\"",
    "   **   ~~~   ** Surface \"PERIMETER_ZN_1_WALL_SOUTH\" misses SubSurface \"PERIMETER_ZN_1_WALL_SOUTH_WINDOW_6\"",
    "   ** Warning ** Base surface does not surround subsurface (CHKSBS), Overlap Status=No-Overlap",
    "   **   ~~~   **   The base surround errors occurred 4 times.",
    "   **   ~~~   ** Surface \"PERIMETER_ZN_2_WALL_EAST\" misses SubSurface \"PERIMETER_ZN_2_WALL_EAST_WINDOW_1\"",
    "   **   ~~~   ** Surface \"PERIMETER_ZN_2_WALL_EAST\" misses SubSurface \"PERIMETER_ZN_2_WALL_EAST_WINDOW_2\"",
    "   **   ~~~   ** Surface \"PERIMETER_ZN_2_WALL_EAST\" misses SubSurface \"PERIMETER_ZN_2_WALL_EAST_WINDOW_3\"",
    "   **   ~~~   ** Surface \"PERIMETER_ZN_2_WALL_EAST\" misses SubSurface \"PERIMETER_ZN_2_WALL_EAST_WINDOW_4\"",
    "   ** Warning ** Base surface does not surround subsurface (CHKSBS), Overlap Status=No-Overlap",
    "   **   ~~~   **   The base surround errors occurred 6 times.",
    "   **   ~~~   ** Surface \"PERIMETER_ZN_3_WALL_NORTH\" misses SubSurface \"PERIMETER_ZN_3_WALL_NORTH_WINDOW_1\"",
    "   **   ~~~   ** Surface \"PERIMETER_ZN_3_WALL_NORTH\" misses SubSurface \"PERIMETER_ZN_3_WALL_NORTH_WINDOW_2\"",
    "   **   ~~~   ** Surface \"PERIMETER_ZN_3_WALL_NORTH\" misses SubSurface \"PERIMETER_ZN_3_WALL_NORTH_WINDOW_3\"",
    "   **   ~~~   ** Surface \"PERIMETER_ZN_3_WALL_NORTH\" misses SubSurface \"PERIMETER_ZN_3_WALL_NORTH_WINDOW_4\"",
    "   **   ~~~   ** Surface \"PERIMETER_ZN_3_WALL_NORTH\" misses SubSurface \"PERIMETER_ZN_3_WALL_NORTH_WINDOW_5\"",
    "   **   ~~~   ** Surface \"PERIMETER_ZN_3_WALL_NORTH\" misses SubSurface \"PERIMETER_ZN_3_WALL_NORTH_WINDOW_6\"",
    "   ** Warning ** Base surface does not surround subsurface (CHKSBS), Overlap Status=No-Overlap",
    "   **   ~~~   **   The base surround errors occurred 4 times.",
    "   **   ~~~   ** Surface \"PERIMETER_ZN_4_WALL_WEST\" misses SubSurface \"PERIMETER_ZN_4_WALL_WEST_WINDOW_1\"",
    "   **   ~~~   ** Surface \"PERIMETER_ZN_4_WALL_WEST\" misses SubSurface \"PERIMETER_ZN_4_WALL_WEST_WINDOW_2\"",
    "   **   ~~~   ** Surface \"PERIMETER_ZN_4_WALL_WEST\" misses SubSurface \"PERIMETER_ZN_4_WALL_WEST_WINDOW_3\"",
    "   **   ~~~   ** Surface \"PERIMETER_ZN_4_WALL_WEST\" misses SubSurface \"PERIMETER_ZN_4_WALL_WEST_WINDOW_4\"",
    "   *************",
    "   **   ~~~   **   The base surround errors occurred 21 times (total).",
    "   *************",
    "   *************",
    "   ************* ===== Recurring Error Summary =====",
    "   ************* The following recurring error messages occurred.",
    "   *************",
    "   *************  ** Warning ** CalcDoe2DXCoil: Coil:Cooling:DX:SingleSpeed=\"PERIM2ZNCOOLINGCOIL\" - Low condenser dry-bulb temperature error continues...",
    "   *************  **   ~~~   **   This error occurred 335 total times;",
    "   *************  **   ~~~   **   during Warmup 0 times;",
    "   *************  **   ~~~   **   during Sizing 0 times.",
    "   *************  **   ~~~   **   Max=-0.15 [C]  Min=-21.7 [C]",
    "   *************",
    "   *************  ** Warning ** CalcDoe2DXCoil: Coil:Cooling:DX:SingleSpeed=\"PERIM2ZNCOOLINGCOIL\" - Full load outlet temperature indicates a possibility of frost/freeze error continues. Outlet air temperature statistics follow:",
    "   *************  **   ~~~   **   This error occurred 464 total times;",
    "   *************  **   ~~~   **   during Warmup 0 times;",
    "   *************  **   ~~~   **   during Sizing 0 times.",
    "   *************  **   ~~~   **   Max=1.900991  Min=-1.37133",
    "   *************",
    "   *************  ** Warning ** CalcDoe2DXCoil: Coil:Cooling:DX:SingleSpeed=\"PERIM4ZNCOOLINGCOIL\" - Low condenser dry-bulb temperature error continues...",
    "   *************  **   ~~~   **   This error occurred 360 total times;",
    "   *************  **   ~~~   **   during Warmup 0 times;",
    "   *************  **   ~~~   **   during Sizing 0 times.",
    "   *************  **   ~~~   **   Max=-0.15 [C]  Min=-21.7 [C]",
    "   *************",
    "   *************  ** Warning ** CalcDoe2DXCoil: Coil:Cooling:DX:SingleSpeed=\"PERIM4ZNCOOLINGCOIL\" - Full load outlet temperature indicates a possibility of frost/freeze error continues. Outlet air temperature statistics follow:",
    "   *************  **   ~~~   **   This error occurred 496 total times;",
    "   *************  **   ~~~   **   during Warmup 0 times;",
    "   *************  **   ~~~   **   during Sizing 0 times.",
    "   *************  **   ~~~   **   Max=1.984713  Min=-1.08853",
    "   *************",
    "   *************  ** Warning ** CalcDoe2DXCoil: Coil:Cooling:DX:SingleSpeed=\"PERIM3ZNCOOLINGCOIL\" - Low condenser dry-bulb temperature error continues...",
    "   *************  **   ~~~   **   This error occurred 286 total times;",
    "   *************  **   ~~~   **   during Warmup 0 times;",
    "   *************  **   ~~~   **   during Sizing 0 times.",
    "   *************  **   ~~~   **   Max=-0.15 [C]  Min=-21.7 [C]",
    "   *************",
    "   *************  ** Warning ** CalcDoe2DXCoil: Coil:Cooling:DX:SingleSpeed=\"PERIM3ZNCOOLINGCOIL\" - Full load outlet temperature indicates a possibility of frost/freeze error continues. Outlet air temperature statistics follow:",
    "   *************  **   ~~~   **   This error occurred 435 total times;",
    "   *************  **   ~~~   **   during Warmup 0 times;",
    "   *************  **   ~~~   **   during Sizing 0 times.",
    "   *************  **   ~~~   **   Max=1.996392  Min=-3.181499",
    "   *************",
    "   *************  ** Warning ** CalcDoe2DXCoil: Coil:Cooling:DX:SingleSpeed=\"PERIM1ZNCOOLINGCOIL\" - Low condenser dry-bulb temperature error continues...",
    "   *************  **   ~~~   **   This error occurred 335 total times;",
    "   *************  **   ~~~   **   during Warmup 0 times;",
    "   *************  **   ~~~   **   during Sizing 0 times.",
    "   *************  **   ~~~   **   Max=-0.15 [C]  Min=-21.7 [C]",
    "   *************",
    "   *************  ** Warning ** CalcDoe2DXCoil: Coil:Cooling:DX:SingleSpeed=\"PERIM1ZNCOOLINGCOIL\" - Full load outlet temperature indicates a possibility of frost/freeze error continues. Outlet air temperature statistics follow:",
    "   *************  **   ~~~   **   This error occurred 397 total times;",
    "   *************  **   ~~~   **   during Warmup 0 times;",
    "   *************  **   ~~~   **   during Sizing 0 times.",
    "   *************  **   ~~~   **   Max=1.96695  Min=-0.538019",
    "   *************",
    "   *************  ** Warning ** CalcDoe2DXCoil: Coil:Cooling:DX:SingleSpeed=\"COREZNCOOLINGCOIL\" - Low condenser dry-bulb temperature error continues...",
    "   *************  **   ~~~   **   This error occurred 233 total times;",
    "   *************  **   ~~~   **   during Warmup 0 times;",
    "   *************  **   ~~~   **   during Sizing 0 times.",
    "   *************  **   ~~~   **   Max=-0.15 [C]  Min=-21.7 [C]",
    "   *************",
    "   *************  ** Warning ** CalcDoe2DXCoil: Coil:Cooling:DX:SingleSpeed=\"COREZNCOOLINGCOIL\" - Full load outlet temperature indicates a possibility of frost/freeze error continues. Outlet air temperature statistics follow:",
    "   *************  **   ~~~   **   This error occurred 48 total times;",
    "   *************  **   ~~~   **   during Warmup 0 times;",
    "   *************  **   ~~~   **   during Sizing 0 times.",
    "   *************  **   ~~~   **   Max=1.69461  Min=-3.76562",
    "   *************",
    "   ************* EnergyPlus Warmup Error Summary. During Warmup: 0 Warning; 0 Severe Errors.",
    "   ************* EnergyPlus Sizing Error Summary. During Sizing: 17 Warning; 0 Severe Errors.",
    "   ************* EnergyPlus Completed Successfully-- 3508 Warning; 0 Severe Errors; "
  ],
  "seed_file": "in.osm",
  "steps": [
    {
      "arguments": {
      },
      "measure_dir_name": "openstudio_results",
      "result": {
        "measure_class_name": "OpenStudioResults",
        "measure_display_name": "OpenStudio Results",
        "measure_name": "openstudio_results",
        "measure_taxonomy": "Reporting.QAQC",
        "measure_type": "ReportingMeasure",
        "measure_uid": "a25386cd-60e4-46bc-8b11-c755f379d916",
        "measure_version_id": "02ad7007-fe7b-4747-bd7a-29d697c4d91a",
        "measure_version_modified": "20180711T183039Z",
        "measure_xml_checksum": "557BF06F",
        "stderr": "",
        "stdout": "",
        "step_errors": [

        ],
        "step_final_condition": "Generated report with 21 sections to ./report.html.",
        "step_info": [

        ],
        "step_initial_condition": "Gathering data from EnergyPlus SQL file and OSM model.",
        "step_result": "Success",
        "step_values": [
          {
            "name": "building_summary_section",
            "value": true
          },
          {
            "name": "annual_overview_section",
            "value": true
          },
          {
            "name": "monthly_overview_section",
            "value": true
          },
          {
            "name": "utility_bills_rates_section",
            "value": true
          },
          {
            "name": "envelope_section_section",
            "value": true
          },
          {
            "name": "space_type_breakdown_section",
            "value": true
          },
          {
            "name": "space_type_details_section",
            "value": true
          },
          {
            "name": "interior_lighting_section",
            "value": true
          },
          {
            "name": "plug_loads_section",
            "value": true
          },
          {
            "name": "exterior_light_section",
            "value": true
          },
          {
            "name": "water_use_section",
            "value": true
          },
          {
            "name": "hvac_load_profile",
            "value": true
          },
          {
            "name": "zone_condition_section",
            "value": true
          },
          {
            "name": "zone_summary_section",
            "value": true
          },
          {
            "name": "zone_equipment_detail_section",
            "value": true
          },
          {
            "name": "air_loops_detail_section",
            "value": true
          },
          {
            "name": "plant_loops_detail_section",
            "value": true
          },
          {
            "name": "outdoor_air_section",
            "value": true
          },
          {
            "name": "cost_summary_section",
            "value": true
          },
          {
            "name": "source_energy_section",
            "value": true
          },
          {
            "name": "schedules_overview_section",
            "value": true
          },
          {
            "name": "standards_gem_version",
            "value": "0.2.9"
          },
          {
            "name": "workflow_gem_version",
            "value": "1.3.3"
          },
          {
            "display_name": "Small Office",
            "name": "building_name",
            "value": "n/a"
          },
          {
            "name": "total_site_energy",
            "units": "kBtu",
            "value": 388349.11
          },
          {
            "name": "net_site_energy",
            "units": "kBtu",
            "value": 388349.11
          },
          {
            "name": "total_building_area",
            "units": "ft^2",
            "value": 11615.77
          },
          {
            "name": "total_site_eui",
            "units": "kBtu/ft^2",
            "value": 33.43
          },
          {
            "name": "eui",
            "units": "kBtu/ft^2",
            "value": 33.43
          },
          {
            "name": "unmet_hours_during_heating",
            "units": "hr",
            "value": 206
          },
          {
            "name": "unmet_hours_during_cooling",
            "units": "hr",
            "value": 1
          },
          {
            "name": "unmet_hours_during_occupied_heating",
            "units": "hr",
            "value": 0
          },
          {
            "name": "unmet_hours_during_occupied_cooling",
            "units": "hr",
            "value": 0
          },
          {
            "name": "unmet_hours_tolerance_heating",
            "units": "F",
            "value": 1.01
          },
          {
            "name": "unmet_hours_tolerance_cooling",
            "units": "F",
            "value": 1.01
          },
          {
            "name": "end_use_heating",
            "units": "kBtu",
            "value": 151347.44
          },
          {
            "name": "end_use_cooling",
            "units": "kBtu",
            "value": 24794.9
          },
          {
            "name": "end_use_interior_lighting",
            "units": "kBtu",
            "value": 32699.69
          },
          {
            "name": "end_use_exterior_lighting",
            "units": "kBtu",
            "value": 0
          },
          {
            "name": "end_use_interior_equipment",
            "units": "kBtu",
            "value": 83028.78
          },
          {
            "name": "end_use_exterior_equipment",
            "units": "kBtu",
            "value": 0
          },
          {
            "name": "end_use_fans",
            "units": "kBtu",
            "value": 70839.85
          },
          {
            "name": "end_use_pumps",
            "units": "kBtu",
            "value": 0
          },
          {
            "name": "end_use_heat_rejection",
            "units": "kBtu",
            "value": 0
          },
          {
            "name": "end_use_humidification",
            "units": "kBtu",
            "value": 0
          },
          {
            "name": "end_use_heat_recovery",
            "units": "kBtu",
            "value": 0
          },
          {
            "name": "end_use_water_systems",
            "units": "kBtu",
            "value": 25638.45
          },
          {
            "name": "end_use_refrigeration",
            "units": "kBtu",
            "value": 0
          },
          {
            "name": "end_use_generators",
            "units": "kBtu",
            "value": 0
          },
          {
            "name": "fuel_electricity",
            "units": "kBtu",
            "value": 211363.22
          },
          {
            "name": "fuel_natural_gas",
            "units": "kBtu",
            "value": 176985.89
          },
          {
            "name": "fuel_additional_fuel",
            "units": "kBtu",
            "value": 0
          },
          {
            "name": "fuel_district_cooling",
            "units": "kBtu",
            "value": 0
          },
          {
            "name": "fuel_district_heating",
            "units": "kBtu",
            "value": 0
          },
          {
            "name": "end_use_electricity_heating",
            "units": "kWh",
            "value": 0
          },
          {
            "name": "end_use_electricity_cooling",
            "units": "kWh",
            "value": 7266.67
          },
          {
            "name": "end_use_electricity_interior_lighting",
            "units": "kWh",
            "value": 9583.33
          },
          {
            "name": "end_use_electricity_exterior_lighting",
            "units": "kWh",
            "value": 0
          },
          {
            "name": "end_use_electricity_interior_equipment",
            "units": "kWh",
            "value": 24333.33
          },
          {
            "name": "end_use_electricity_exterior_equipment",
            "units": "kWh",
            "value": 0
          },
          {
            "name": "end_use_electricity_fans",
            "units": "kWh",
            "value": 20761.11
          },
          {
            "name": "end_use_electricity_pumps",
            "units": "kWh",
            "value": 0
          },
          {
            "name": "end_use_electricity_heat_rejection",
            "units": "kWh",
            "value": 0
          },
          {
            "name": "end_use_electricity_humidification",
            "units": "kWh",
            "value": 0
          },
          {
            "name": "end_use_electricity_heat_recovery",
            "units": "kWh",
            "value": 0
          },
          {
            "name": "end_use_electricity_water_systems",
            "units": "kWh",
            "value": 0
          },
          {
            "name": "end_use_electricity_refrigeration",
            "units": "kWh",
            "value": 0
          },
          {
            "name": "end_use_electricity_generators",
            "units": "kWh",
            "value": 0
          },
          {
            "name": "end_use_natural_gas_heating",
            "units": "therms",
            "value": 1513.77
          },
          {
            "name": "end_use_natural_gas_cooling",
            "units": "therms",
            "value": 0
          },
          {
            "name": "end_use_natural_gas_interior_lighting",
            "units": "therms",
            "value": 0
          },
          {
            "name": "end_use_natural_gas_exterior_lighting",
            "units": "therms",
            "value": 0
          },
          {
            "name": "end_use_natural_gas_interior_equipment",
            "units": "therms",
            "value": 0
          },
          {
            "name": "end_use_natural_gas_exterior_equipment",
            "units": "therms",
            "value": 0
          },
          {
            "name": "end_use_natural_gas_fans",
            "units": "therms",
            "value": 0
          },
          {
            "name": "end_use_natural_gas_pumps",
            "units": "therms",
            "value": 0
          },
          {
            "name": "end_use_natural_gas_heat_rejection",
            "units": "therms",
            "value": 0
          },
          {
            "name": "end_use_natural_gas_humidification",
            "units": "therms",
            "value": 0
          },
          {
            "name": "end_use_natural_gas_heat_recovery",
            "units": "therms",
            "value": 0
          },
          {
            "name": "end_use_natural_gas_water_systems",
            "units": "therms",
            "value": 256.43
          },
          {
            "name": "end_use_natural_gas_refrigeration",
            "units": "therms",
            "value": 0
          },
          {
            "name": "end_use_natural_gas_generators",
            "units": "therms",
            "value": 0
          },
          {
            "name": "electricity_heating_ip",
            "units": "kWh",
            "value": 0
          },
          {
            "name": "electricity_cooling_ip",
            "units": "kWh",
            "value": 7265.54
          },
          {
            "name": "electricity_interior_lighting_ip",
            "units": "kWh",
            "value": 9582.28
          },
          {
            "name": "electricity_exterior_lighting_ip",
            "units": "kWh",
            "value": 0
          },
          {
            "name": "electricity_interior_equipment_ip",
            "units": "kWh",
            "value": 24334.31
          },
          {
            "name": "electricity_exterior_equipment_ip",
            "units": "kWh",
            "value": 0
          },
          {
            "name": "electricity_fans_ip",
            "units": "kWh",
            "value": 20761.6
          },
          {
            "name": "electricity_pumps_ip",
            "units": "kWh",
            "value": 0
          },
          {
            "name": "electricity_heat_rejection_ip",
            "units": "kWh",
            "value": 0
          },
          {
            "name": "electricity_humidification_ip",
            "units": "kWh",
            "value": 0
          },
          {
            "name": "electricity_heat_recovery_ip",
            "units": "kWh",
            "value": 0
          },
          {
            "name": "electricity_water_systems_ip",
            "units": "kWh",
            "value": 0
          },
          {
            "name": "electricity_refrigeration_ip",
            "units": "kWh",
            "value": 0
          },
          {
            "name": "electricity_generators_ip",
            "units": "kWh",
            "value": 0
          },
          {
            "name": "electricity_ip",
            "units": "kWh",
            "value": 61943.73
          },
          {
            "name": "natural_gas_heating_ip",
            "units": "MBtu",
            "value": 151.35
          },
          {
            "name": "natural_gas_cooling_ip",
            "units": "MBtu",
            "value": 0
          },
          {
            "name": "natural_gas_interior_lighting_ip",
            "units": "MBtu",
            "value": 0
          },
          {
            "name": "natural_gas_exterior_lighting_ip",
            "units": "MBtu",
            "value": 0
          },
          {
            "name": "natural_gas_interior_equipment_ip",
            "units": "MBtu",
            "value": 0
          },
          {
            "name": "natural_gas_exterior_equipment_ip",
            "units": "MBtu",
            "value": 0
          },
          {
            "name": "natural_gas_fans_ip",
            "units": "MBtu",
            "value": 0
          },
          {
            "name": "natural_gas_pumps_ip",
            "units": "MBtu",
            "value": 0
          },
          {
            "name": "natural_gas_heat_rejection_ip",
            "units": "MBtu",
            "value": 0
          },
          {
            "name": "natural_gas_humidification_ip",
            "units": "MBtu",
            "value": 0
          },
          {
            "name": "natural_gas_heat_recovery_ip",
            "units": "MBtu",
            "value": 0
          },
          {
            "name": "natural_gas_water_systems_ip",
            "units": "MBtu",
            "value": 25.64
          },
          {
            "name": "natural_gas_refrigeration_ip",
            "units": "MBtu",
            "value": 0
          },
          {
            "name": "natural_gas_generators_ip",
            "units": "MBtu",
            "value": 0
          },
          {
            "name": "natural_gas_ip",
            "units": "MBtu",
            "value": 176.99
          },
          {
            "name": "additional_fuel_heating_ip",
            "units": "MBtu",
            "value": 0
          },
          {
            "name": "additional_fuel_cooling_ip",
            "units": "MBtu",
            "value": 0
          },
          {
            "name": "additional_fuel_interior_lighting_ip",
            "units": "MBtu",
            "value": 0
          },
          {
            "name": "additional_fuel_exterior_lighting_ip",
            "units": "MBtu",
            "value": 0
          },
          {
            "name": "additional_fuel_interior_equipment_ip",
            "units": "MBtu",
            "value": 0
          },
          {
            "name": "additional_fuel_exterior_equipment_ip",
            "units": "MBtu",
            "value": 0
          },
          {
            "name": "additional_fuel_fans_ip",
            "units": "MBtu",
            "value": 0
          },
          {
            "name": "additional_fuel_pumps_ip",
            "units": "MBtu",
            "value": 0
          },
          {
            "name": "additional_fuel_heat_rejection_ip",
            "units": "MBtu",
            "value": 0
          },
          {
            "name": "additional_fuel_humidification_ip",
            "units": "MBtu",
            "value": 0
          },
          {
            "name": "additional_fuel_heat_recovery_ip",
            "units": "MBtu",
            "value": 0
          },
          {
            "name": "additional_fuel_water_systems_ip",
            "units": "MBtu",
            "value": 0
          },
          {
            "name": "additional_fuel_refrigeration_ip",
            "units": "MBtu",
            "value": 0
          },
          {
            "name": "additional_fuel_generators_ip",
            "units": "MBtu",
            "value": 0
          },
          {
            "name": "additional_fuel_ip",
            "units": "MBtu",
            "value": 0
          },
          {
            "name": "district_cooling_heating_ip",
            "units": "MBtu",
            "value": 0
          },
          {
            "name": "district_cooling_cooling_ip",
            "units": "MBtu",
            "value": 0
          },
          {
            "name": "district_cooling_interior_lighting_ip",
            "units": "MBtu",
            "value": 0
          },
          {
            "name": "district_cooling_exterior_lighting_ip",
            "units": "MBtu",
            "value": 0
          },
          {
            "name": "district_cooling_interior_equipment_ip",
            "units": "MBtu",
            "value": 0
          },
          {
            "name": "district_cooling_exterior_equipment_ip",
            "units": "MBtu",
            "value": 0
          },
          {
            "name": "district_cooling_fans_ip",
            "units": "MBtu",
            "value": 0
          },
          {
            "name": "district_cooling_pumps_ip",
            "units": "MBtu",
            "value": 0
          },
          {
            "name": "district_cooling_heat_rejection_ip",
            "units": "MBtu",
            "value": 0
          },
          {
            "name": "district_cooling_humidification_ip",
            "units": "MBtu",
            "value": 0
          },
          {
            "name": "district_cooling_heat_recovery_ip",
            "units": "MBtu",
            "value": 0
          },
          {
            "name": "district_cooling_water_systems_ip",
            "units": "MBtu",
            "value": 0
          },
          {
            "name": "district_cooling_refrigeration_ip",
            "units": "MBtu",
            "value": 0
          },
          {
            "name": "district_cooling_generators_ip",
            "units": "MBtu",
            "value": 0
          },
          {
            "name": "district_cooling_ip",
            "units": "MBtu",
            "value": 0
          },
          {
            "name": "district_heating_heating_ip",
            "units": "MBtu",
            "value": 0
          },
          {
            "name": "district_heating_cooling_ip",
            "units": "MBtu",
            "value": 0
          },
          {
            "name": "district_heating_interior_lighting_ip",
            "units": "MBtu",
            "value": 0
          },
          {
            "name": "district_heating_exterior_lighting_ip",
            "units": "MBtu",
            "value": 0
          },
          {
            "name": "district_heating_interior_equipment_ip",
            "units": "MBtu",
            "value": 0
          },
          {
            "name": "district_heating_exterior_equipment_ip",
            "units": "MBtu",
            "value": 0
          },
          {
            "name": "district_heating_fans_ip",
            "units": "MBtu",
            "value": 0
          },
          {
            "name": "district_heating_pumps_ip",
            "units": "MBtu",
            "value": 0
          },
          {
            "name": "district_heating_heat_rejection_ip",
            "units": "MBtu",
            "value": 0
          },
          {
            "name": "district_heating_humidification_ip",
            "units": "MBtu",
            "value": 0
          },
          {
            "name": "district_heating_heat_recovery_ip",
            "units": "MBtu",
            "value": 0
          },
          {
            "name": "district_heating_water_systems_ip",
            "units": "MBtu",
            "value": 0
          },
          {
            "name": "district_heating_refrigeration_ip",
            "units": "MBtu",
            "value": 0
          },
          {
            "name": "district_heating_generators_ip",
            "units": "MBtu",
            "value": 0
          },
          {
            "name": "district_heating_ip",
            "units": "MBtu",
            "value": 0
          },
          {
            "name": "water_heating_ip",
            "units": "MBtu",
            "value": 0
          },
          {
            "name": "water_cooling_ip",
            "units": "MBtu",
            "value": 0
          },
          {
            "name": "water_interior_lighting_ip",
            "units": "MBtu",
            "value": 0
          },
          {
            "name": "water_exterior_lighting_ip",
            "units": "MBtu",
            "value": 0
          },
          {
            "name": "water_interior_equipment_ip",
            "units": "MBtu",
            "value": 0
          },
          {
            "name": "water_exterior_equipment_ip",
            "units": "MBtu",
            "value": 0
          },
          {
            "name": "water_fans_ip",
            "units": "MBtu",
            "value": 0
          },
          {
            "name": "water_pumps_ip",
            "units": "MBtu",
            "value": 0
          },
          {
            "name": "water_heat_rejection_ip",
            "units": "MBtu",
            "value": 0
          },
          {
            "name": "water_humidification_ip",
            "units": "MBtu",
            "value": 0
          },
          {
            "name": "water_heat_recovery_ip",
            "units": "MBtu",
            "value": 0
          },
          {
            "name": "water_water_systems_ip",
            "units": "MBtu",
            "value": 0
          },
          {
            "name": "water_refrigeration_ip",
            "units": "MBtu",
            "value": 0
          },
          {
            "name": "water_generators_ip",
            "units": "MBtu",
            "value": 0
          },
          {
            "name": "water_ip",
            "units": "MBtu",
            "value": 0
          },
          {
            "name": "base_cz_12_nonres_metal_frame_wall_u_062",
            "units": "ft^2",
            "value": 2388.22
          },
          {
            "name": "base_cz_12_nonres_other_floor_u_071",
            "units": "ft^2",
            "value": 611.61
          },
          {
            "name": "base_cz_12_steep_nonres_wood_framing_and_other_roof_u_034",
            "units": "ft^2",
            "value": 6445.01
          },
          {
            "name": "base_all_cz_fixed_window_u_36",
            "units": "ft^2",
            "value": 600.0
          },
          {
            "name": "glazed_door",
            "units": "ft^2",
            "value": 42
          },
          {
            "name": "gross_window_wall_ratio",
            "units": "%",
            "value": 21.19
          },
          {
            "name": "gross_window_wall_ratio_conditioned",
            "units": "%",
            "value": 21.19
          },
          {
            "name": "skylight_roof_ratio",
            "units": "%",
            "value": 0
          },
          {
            "name": "space_type_no_space_type",
            "units": "ft^2",
            "value": 11615.72
          },
          {
            "name": "exterior_lighting_total_power",
            "units": "W",
            "value": 0
          },
          {
            "name": "exterior_lighting_total_consumption",
            "units": "kWh",
            "value": 113813.89
          },
          {
            "name": "core_zn_water_use_equipment",
            "units": "gal/min",
            "value": 0.02
          },
          {
            "name": "perimeter_zn_1_water_use_equipment",
            "units": "gal/min",
            "value": 0.02
          },
          {
            "name": "perimeter_zn_2_water_use_equipment",
            "units": "gal/min",
            "value": 0.01
          },
          {
            "name": "perimeter_zn_3_water_use_equipment",
            "units": "gal/min",
            "value": 0.02
          },
          {
            "name": "perimeter_zn_4_water_use_equipment",
            "units": "gal/min",
            "value": 0.01
          },
          {
            "name": "inflation_approach",
            "value": "Constant Dollar"
          },
          {
            "name": "analysis_length",
            "units": "yrs",
            "value": 25
          },
          {
            "name": "annual_peak_electric_demand",
            "units": "kW",
            "value": 22.29
          },
          {
            "name": "first_year_capital_cost",
            "units": "$",
            "value": 0
          },
          {
            "name": "annual_utility_cost",
            "units": "$",
            "value": 0
          },
          {
            "name": "total_lifecycle_cost",
            "units": "$",
            "value": 0
          }
        ],
        "step_warnings": [

        ]
      }
    }
  ],
  "weather_file": "../../weatherdata/USA_IL_Chicago-OHare.Intl.AP.725300_TMY3.epw"
}