{
  "completed_status": "Success",
  "current_step": 1,
  "eplusout_err": [
    "Program Version,EnergyPlus, Version 9.5.0-de239b2e5f, ",
    "   ************* Beginning Zone Sizing Calculations",
    "   ** Warning ** ProcessScheduleInput: Schedule:Day:Interval=\"{26850991-FF50-4C29-99FE-4B2041DBCDB4}\", Blank Schedule Type Limits Name input -- will not be validated.",
    "   ** Warning ** ProcessScheduleInput: Schedule:Day:Interval=\"{A065F1D1-C33C-4C10-B594-00F783F2708F}\", Blank Schedule Type Limits Name input -- will not be validated.",
    "   ** Warning ** ProcessScheduleInput: Schedule:Day:Interval=\"{B24410D1-1267-4105-924F-F69AC3206A31}\", Blank Schedule Type Limits Name input -- will not be validated.",
    "   ** Warning ** ProcessScheduleInput: Schedule:Day:Interval=\"{BEC1D130-A99A-431F-AFFC-E1D8F400DB90}\", Blank Schedule Type Limits Name input -- will not be validated.",
    "   ** Warning ** ProcessScheduleInput: Schedule:Day:Interval=\"{CFEABC54-BAB6-4BC2-A732-F5F02BD353DC}\", Blank Schedule Type Limits Name input -- will not be validated.",
    "   ** Warning ** ProcessScheduleInput: Schedule:Year=\"CORE_ZN TARGET SHW TEMP\", Blank Schedule Type Limits Name input -- will not be validated.",
    "   ** Warning ** ProcessScheduleInput: Schedule:Year=\"PERIMETER_ZN_1 TARGET SHW TEMP\", Blank Schedule Type Limits Name input -- will not be validated.",
    "   ** Warning ** ProcessScheduleInput: Schedule:Year=\"PERIMETER_ZN_2 TARGET SHW TEMP\", Blank Schedule Type Limits Name input -- will not be validated.",
    "   ** Warning ** ProcessScheduleInput: Schedule:Year=\"PERIMETER_ZN_3 TARGET SHW TEMP\", Blank Schedule Type Limits Name input -- will not be validated.",
    "   ** Warning ** ProcessScheduleInput: Schedule:Year=\"PERIMETER_ZN_4 TARGET SHW TEMP\", Blank Schedule Type Limits Name input -- will not be validated.",
    "   ** Warning ** ProcessScheduleInput: Schedule:Constant=\"ALWAYS OFF DISCRETE\", Blank Schedule Type Limits Name input -- will not be validated.",
    "   ** Warning ** ProcessScheduleInput: Schedule:Constant=\"ALWAYS ON CONTINUOUS\", Blank Schedule Type Limits Name input -- will not be validated.",
    "   ** Warning ** Weather file location will be used rather than entered (IDF) Location object.",
    "   **   ~~~   ** ..Location object={3EDD5EAF-33A0-4B3D-A7D7-FD7292A658B7}",
    "   **   ~~~   ** ..Weather File Location=Chicago Ohare Intl Ap IL USA TMY3 WMO#=725300",
    "   **   ~~~   ** ..due to location differences, Latitude difference=[8.03] degrees, Longitude difference=[30.48] degrees.",
    "   **   ~~~   ** ..Time Zone difference=[2.0] hour(s), Elevation difference=[572.91] percent, [171.13] meters.",
    "   ** Warning ** GetDaylightingControls: Fraction of Zone controlled by the Daylighting reference points is < 1.0.",
    "   **   ~~~   ** ..discovered in \"Daylighting:Controls\" for Zone=\"PERIMETER_ZN_1 THERMAL ZONE\", only 0.508 of the zone is controlled.",
    "   ** Warning ** GetDaylightingControls: Fraction of Zone controlled by the Daylighting reference points is < 1.0.",
    "   **   ~~~   ** ..discovered in \"Daylighting:Controls\" for Zone=\"PERIMETER_ZN_2 THERMAL ZONE\", only 0.538 of the zone is controlled.",
    "   ** Warning ** GetDaylightingControls: Fraction of Zone controlled by the Daylighting reference points is < 1.0.",
    "   **   ~~~   ** ..discovered in \"Daylighting:Controls\" for Zone=\"PERIMETER_ZN_3 THERMAL ZONE\", only 0.501 of the zone is controlled.",
    "   ** Warning ** GetDaylightingControls: Fraction of Zone controlled by the Daylighting reference points is < 1.0.",
    "   **   ~~~   ** ..discovered in \"Daylighting:Controls\" for Zone=\"PERIMETER_ZN_4 THERMAL ZONE\", only 0.538 of the zone is controlled.",
    "   ** Warning ** GetSimpleAirModelInputs: ZoneInfiltration:DesignFlowRate=\"ATTIC SPACE INFILTRATION DESIGN FLOW RATE 1\", Design Flow Rate Calculation Method specifies Flow per Exterior Surface Area, but Exterior Wall Area = 0.  0 Infiltration will result.",
    "   ** Warning ** GetSimpleAirModelInputs: ZoneInfiltration:DesignFlowRate=\"CORE_ZN SPACE INFILTRATION DESIGN FLOW RATE 1\", Design Flow Rate Calculation Method specifies Flow per Exterior Surface Area, but Exterior Wall Area = 0.  0 Infiltration will result.",
    "   ** Warning ** Calculated design cooling load for zone=PERIMETER_ZN_3 THERMAL ZONE is zero.",
    "   **   ~~~   ** Check Sizing:Zone and ZoneControl:Thermostat inputs.",
    "   ************* Beginning System Sizing Calculations",
    "   ** Warning ** GetDXCoils: Coil:Heating:DX:SingleSpeed=\"PERIM1ZNHEATINGCOIL\" curve values",
    "   **   ~~~   ** ... Energy Input Ratio Function of Flow Fraction Curve Name = COILHTGHPEIRRATIO_FCFMRATIO output is not equal to 1.0 (+ or - 10%) at rated conditions.",
    "   **   ~~~   ** ... Curve output at rated conditions = 1.380",
    "   ** Warning ** GetAirPathData: AirLoopHVAC=\"PERIM4ZNHV AIRSYS\" has no Controllers.",
    "   ************* Beginning Plant Sizing Calculations",
    "   ** Warning ** The Standard Ratings is calculated for Coil:Cooling:DX:SingleSpeed = COREZNCOOLINGCOIL but not at the AHRI test condition due to curve out of bound.",
    "   **   ~~~   **  Review the Standard Ratings calculations in the Engineering Reference for this coil type. Also, use Output:Diagnostics, DisplayExtraWarnings for further guidance.",
    "   ** Warning ** The Standard Ratings is calculated for Coil:Cooling:DX:SingleSpeed = FURNACE DUMMY COILCLG but not at the AHRI test condition due to curve out of bound.",
    "   **   ~~~   **  Review the Standard Ratings calculations in the Engineering Reference for this coil type. Also, use Output:Diagnostics, DisplayExtraWarnings for further guidance.",
    "   ** Warning ** Sizing: Coil:Cooling:DX:SingleSpeed \"FURNACE DUMMY COILCLG\": Rated air volume flow rate per watt of rated total cooling capacity is out of range.",
    "   **   ~~~   ** Min Rated Vol Flow Per Watt=[4.027E-005], Rated Vol Flow Per Watt=[1.082], Max Rated Vol Flow Per Watt=[6.041E-005]. See Input Output Reference Manual for valid range.",
    "   ** Warning ** CalcDoe2DXCoil: Coil:Cooling:DX:SingleSpeed=\"FURNACE DUMMY COILCLG\" - Air volume flow rate per watt of rated total cooling capacity is out of range at 1.057 m3/s/W.",
    "   **   ~~~   **  Environment=CHICAGO OHARE INTL AP ANN HTG 99.6% CONDNS DB, at Simulation time=01/21 24:00 - 24:15",
    "   **   ~~~   ** Expected range for VolumeFlowPerRatedTotalCapacity=[2.684E-005--6.713E-005]",
    "   **   ~~~   ** Possible causes include inconsistent air flow rates in system components,",
    "   **   ~~~   ** or variable air volume [VAV] system using incorrect coil type.",
    "   ** Warning ** The Standard Ratings is calculated for Coil:Cooling:DX:SingleSpeed = PROPNOCLG COILCLG but not at the AHRI test condition due to curve out of bound.",
    "   **   ~~~   **  Review the Standard Ratings calculations in the Engineering Reference for this coil type. Also, use Output:Diagnostics, DisplayExtraWarnings for further guidance.",
    "   ** Warning ** GetOAControllerInputs: Controller:MechanicalVentilation=\"PERIM1OACONTROL MECH VENT CONTROLLER",
    "   **   ~~~   ** Cannot locate a matching DesignSpecification:ZoneAirDistribution object for Zone=\"PERIMETER_ZN_1 THERMAL ZONE\".",
    "   **   ~~~   ** Using default zone air distribution effectiveness of 1.0 for heating and cooling.",
    "   ** Warning ** GetOAControllerInputs: Controller:MechanicalVentilation=\"PERIM2OACONTROL MECH VENT CONTROLLER",
    "   **   ~~~   ** Cannot locate a matching DesignSpecification:ZoneAirDistribution object for Zone=\"PERIMETER_ZN_2 THERMAL ZONE\".",
    "   **   ~~~   ** Using default zone air distribution effectiveness of 1.0 for heating and cooling.",
    "   ** Warning ** GetOAControllerInputs: Controller:MechanicalVentilation=\"PERIM4 OACONTROL MECH VENT CONTROLLER",
    "   **   ~~~   ** Cannot locate a matching DesignSpecification:ZoneAirDistribution object for Zone=\"PERIMETER_ZN_4 THERMAL ZONE\".",
    "   **   ~~~   ** Using default zone air distribution effectiveness of 1.0 for heating and cooling.",
    "   ** Warning ** The Standard Ratings is calculated for Coil:Cooling:DX:SingleSpeed = PERIM1ZNCOOLINGCOIL but not at the AHRI test condition due to curve out of bound.",
    "   **   ~~~   **  Review the Standard Ratings calculations in the Engineering Reference for this coil type. Also, use Output:Diagnostics, DisplayExtraWarnings for further guidance.",
    "   ** Warning ** The Standard Ratings is calculated for Coil:Heating:DX:SingleSpeed = PERIM1ZNHEATINGCOIL but not at the AHRI test condition due to curve out of bound.",
    "   **   ~~~   **  Review the Standard Ratings calculations in the Engineering Reference for this coil type. Also, use Output:Diagnostics, DisplayExtraWarnings for further guidance.",
    "   ** Warning ** The Standard Ratings is calculated for Coil:Cooling:DX:SingleSpeed = PERIM2ZNCOOLINGCOIL but not at the AHRI test condition due to curve out of bound.",
    "   **   ~~~   **  Review the Standard Ratings calculations in the Engineering Reference for this coil type. Also, use Output:Diagnostics, DisplayExtraWarnings for further guidance.",
    "   ** Warning ** InitOAController: Maximum Outdoor Air Flow Rate for Controller:OutdoorAir=PERIM4 OACONTROL is greater than Design Supply Air Flow Rate for AirLoopHVAC=PERIM4ZNHV AIRSYS.",
    "   **   ~~~   ** ...Maximum Outdoor Air Flow Rate=0.289120 will be reset to loop Design Supply Air Flow Rate=0.256413",
    "   ** Warning ** Check input. Pump nominal power or motor efficiency is set to 0, for pump={D5615D14-B0AD-49C7-A877-FCCC8226228D}",
    "   ** Warning ** Output:Meter: invalid Key Name=\"DISTRICTCOOLING:FACILITY\" - not found.",
    "   ** Warning ** Output:Meter: invalid Key Name=\"DISTRICTHEATING:FACILITY\" - not found.",
    "   ** Warning ** Output:Meter:MeterFileOnly: invalid Key Name=\"COAL:FACILITY\" - not found.",
    "   ** Warning ** Output:Meter:MeterFileOnly: invalid Key Name=\"COGENERATION:COAL\" - not found.",
    "   ** Warning ** Output:Meter:MeterFileOnly: invalid Key Name=\"COGENERATION:DISTRICTCOOLING\" - not found.",
    "   ** Warning ** Output:Meter:MeterFileOnly: invalid Key Name=\"COGENERATION:DISTRICTHEATING\" - not found.",
    "   ** Warning ** Output:Meter:MeterFileOnly: invalid Key Name=\"COGENERATION:ELECTRICITY\" - not found.",
    "   ** Warning ** Output:Meter:MeterFileOnly: invalid Key Name=\"COGENERATION:NATURALGAS\" - not found.",
    "   ** Warning ** Output:Meter:MeterFileOnly: invalid Key Name=\"COOLING:COAL\" - not found.",
    "   ** Warning ** Output:Meter:MeterFileOnly: invalid Key Name=\"COOLING:DISTRICTCOOLING\" - not found.",
    "   ** Warning ** Output:Meter:MeterFileOnly: invalid Key Name=\"COOLING:DISTRICTHEATING\" - not found.",
    "   ** Warning ** Output:Meter:MeterFileOnly: invalid Key Name=\"COOLING:NATURALGAS\" - not found.",
    "   ** Warning ** Output:Meter:MeterFileOnly: invalid Key Name=\"DISTRICTCOOLING:FACILITY\" - not found.",
    "   ** Warning ** Output:Meter:MeterFileOnly: invalid Key Name=\"DISTRICTHEATING:FACILITY\" - not found.",
    "   ** Warning ** Output:Meter:MeterFileOnly: invalid Key Name=\"EXTERIOREQUIPMENT:COAL\" - not found.",
    "   ** Warning ** Output:Meter:MeterFileOnly: invalid Key Name=\"EXTERIOREQUIPMENT:DISTRICTCOOLING\" - not found.",
    "   ** Warning ** Output:Meter:MeterFileOnly: invalid Key Name=\"EXTERIOREQUIPMENT:DISTRICTHEATING\" - not found.",
    "   ** Warning ** Output:Meter:MeterFileOnly: invalid Key Name=\"EXTERIOREQUIPMENT:ELECTRICITY\" - not found.",
    "   ** Warning ** Output:Meter:MeterFileOnly: invalid Key Name=\"EXTERIOREQUIPMENT:NATURALGAS\" - not found.",
    "   ** Warning ** Output:Meter:MeterFileOnly: invalid Key Name=\"EXTERIORLIGHTS:COAL\" - not found.",
    "   ** Warning ** Output:Meter:MeterFileOnly: invalid Key Name=\"EXTERIORLIGHTS:DISTRICTCOOLING\" - not found.",
    "   ** Warning ** Output:Meter:MeterFileOnly: invalid Key Name=\"EXTERIORLIGHTS:DISTRICTHEATING\" - not found.",
    "   ** Warning ** Output:Meter:MeterFileOnly: invalid Key Name=\"EXTERIORLIGHTS:ELECTRICITY\" - not found.",
    "   ** Warning ** Output:Meter:MeterFileOnly: invalid Key Name=\"EXTERIORLIGHTS:NATURALGAS\" - not found.",
    "   ** Warning ** Output:Meter:MeterFileOnly: invalid Key Name=\"FANS:COAL\" - not found.",
    "   ** Warning ** Output:Meter:MeterFileOnly: invalid Key Name=\"FANS:DISTRICTCOOLING\" - not found.",
    "   ** Warning ** Output:Meter:MeterFileOnly: invalid Key Name=\"FANS:DISTRICTHEATING\" - not found.",
    "   ** Warning ** Output:Meter:MeterFileOnly: invalid Key Name=\"FANS:NATURALGAS\" - not found.",
    "   ** Warning ** Output:Meter:MeterFileOnly: invalid Key Name=\"HEATING:COAL\" - not found.",
    "   ** Warning ** Output:Meter:MeterFileOnly: invalid Key Name=\"HEATING:DISTRICTCOOLING\" - not found.",
    "   ** Warning ** Output:Meter:MeterFileOnly: invalid Key Name=\"HEATING:DISTRICTHEATING\" - not found.",
    "   ** Warning ** Output:Meter:MeterFileOnly: invalid Key Name=\"HEATRECOVERY:COAL\" - not found.",
    "   ** Warning ** Output:Meter:MeterFileOnly: invalid Key Name=\"HEATRECOVERY:DISTRICTCOOLING\" - not found.",
    "   ** Warning ** Output:Meter:MeterFileOnly: invalid Key Name=\"HEATRECOVERY:DISTRICTHEATING\" - not found.",
    "   ** Warning ** Output:Meter:MeterFileOnly: invalid Key Name=\"HEATRECOVERY:ELECTRICITY\" - not found.",
    "   ** Warning ** Output:Meter:MeterFileOnly: invalid Key Name=\"HEATRECOVERY:NATURALGAS\" - not found.",
    "   ** Warning ** Output:Meter:MeterFileOnly: invalid Key Name=\"HEATREJECTION:COAL\" - not found.",
    "   ** Warning ** Output:Meter:MeterFileOnly: invalid Key Name=\"HEATREJECTION:DISTRICTCOOLING\" - not found.",
    "   ** Warning ** Output:Meter:MeterFileOnly: invalid Key Name=\"HEATREJECTION:DISTRICTHEATING\" - not found.",
    "   ** Warning ** Output:Meter:MeterFileOnly: invalid Key Name=\"HEATREJECTION:ELECTRICITY\" - not found.",
    "   ** Warning ** Output:Meter:MeterFileOnly: invalid Key Name=\"HEATREJECTION:NATURALGAS\" - not found.",
    "   ** Warning ** Output:Meter:MeterFileOnly: invalid Key Name=\"HUMIDIFIER:COAL\" - not found.",
    "   ** Warning ** Output:Meter:MeterFileOnly: invalid Key Name=\"HUMIDIFIER:DISTRICTCOOLING\" - not found.",
    "   ** Warning ** Output:Meter:MeterFileOnly: invalid Key Name=\"HUMIDIFIER:DISTRICTHEATING\" - not found.",
    "   ** Warning ** Output:Meter:MeterFileOnly: invalid Key Name=\"HUMIDIFIER:ELECTRICITY\" - not found.",
    "   ** Warning ** Output:Meter:MeterFileOnly: invalid Key Name=\"HUMIDIFIER:NATURALGAS\" - not found.",
    "   ** Warning ** Output:Meter:MeterFileOnly: invalid Key Name=\"INTERIOREQUIPMENT:COAL\" - not found.",
    "   ** Warning ** Output:Meter:MeterFileOnly: invalid Key Name=\"INTERIOREQUIPMENT:DISTRICTCOOLING\" - not found.",
    "   ** Warning ** Output:Meter:MeterFileOnly: invalid Key Name=\"INTERIOREQUIPMENT:DISTRICTHEATING\" - not found.",
    "   ** Warning ** Output:Meter:MeterFileOnly: invalid Key Name=\"INTERIOREQUIPMENT:NATURALGAS\" - not found.",
    "   ** Warning ** Output:Meter:MeterFileOnly: invalid Key Name=\"INTERIORLIGHTS:COAL\" - not found.",
    "   ** Warning ** Output:Meter:MeterFileOnly: invalid Key Name=\"INTERIORLIGHTS:DISTRICTCOOLING\" - not found.",
    "   ** Warning ** Output:Meter:MeterFileOnly: invalid Key Name=\"INTERIORLIGHTS:DISTRICTHEATING\" - not found.",
    "   ** Warning ** Output:Meter:MeterFileOnly: invalid Key Name=\"INTERIORLIGHTS:NATURALGAS\" - not found.",
    "   ** Warning ** Output:Meter:MeterFileOnly: invalid Key Name=\"INTERNAL TRANSPORT:INTERIOREQUIPMENT:ELECTRICITY\" - not found.",
    "   ** Warning ** Output:Meter:MeterFileOnly: invalid Key Name=\"NONCOMPLIANCELTG:INTERIORLIGHTS:ELECTRICITY\" - not found.",
    "   ** Warning ** Output:Meter:MeterFileOnly: invalid Key Name=\"NONREG LTG:EXTERIORLIGHTS:ELECTRICITY\" - not found.",
    "   ** Warning ** Output:Meter:MeterFileOnly: invalid Key Name=\"PROCESS:EXTERIOREQUIPMENT:ELECTRICITY\" - not found.",
    "   ** Warning ** Output:Meter:MeterFileOnly: invalid Key Name=\"PROCESS:EXTERIOREQUIPMENT:NATURALGAS\" - not found.",
    "   ** Warning ** Output:Meter:MeterFileOnly: invalid Key Name=\"PROCESS:INTERIOREQUIPMENT:ELECTRICITY\" - not found.",
    "   ** Warning ** Output:Meter:MeterFileOnly: invalid Key Name=\"PROCESS:INTERIOREQUIPMENT:NATURALGAS\" - not found.",
    "   ** Warning ** Output:Meter:MeterFileOnly: invalid Key Name=\"PUMPS:COAL\" - not found.",
    "   ** Warning ** Output:Meter:MeterFileOnly: invalid Key Name=\"PUMPS:DISTRICTCOOLING\" - not found.",
    "   ** Warning ** Output:Meter:MeterFileOnly: invalid Key Name=\"PUMPS:DISTRICTHEATING\" - not found.",
    "   ** Warning ** Output:Meter:MeterFileOnly: invalid Key Name=\"PUMPS:NATURALGAS\" - not found.",
    "   ** Warning ** Output:Meter:MeterFileOnly: invalid Key Name=\"RECEPTACLE:EXTERIOREQUIPMENT:ELECTRICITY\" - not found.",
    "   ** Warning ** Output:Meter:MeterFileOnly: invalid Key Name=\"RECEPTACLE:EXTERIOREQUIPMENT:NATURALGAS\" - not found.",
    "   ** Warning ** Output:Meter:MeterFileOnly: invalid Key Name=\"RECEPTACLE:INTERIOREQUIPMENT:NATURALGAS\" - not found.",
    "   ** Warning ** Output:Meter:MeterFileOnly: invalid Key Name=\"REFRIG:EXTERIOREQUIPMENT:ELECTRICITY\" - not found.",
    "   ** Warning ** Output:Meter:MeterFileOnly: invalid Key Name=\"REFRIG:INTERIOREQUIPMENT:ELECTRICITY\" - not found.",
    "   ** Warning ** Output:Meter:MeterFileOnly: invalid Key Name=\"REFRIGERATION:COAL\" - not found.",
    "   ** Warning ** Output:Meter:MeterFileOnly: invalid Key Name=\"REFRIGERATION:DISTRICTCOOLING\" - not found.",
    "   ** Warning ** Output:Meter:MeterFileOnly: invalid Key Name=\"REFRIGERATION:DISTRICTHEATING\" - not found.",
    "   ** Warning ** Output:Meter:MeterFileOnly: invalid Key Name=\"REFRIGERATION:ELECTRICITY\" - not found.",
    "   ** Warning ** Output:Meter:MeterFileOnly: invalid Key Name=\"REFRIGERATION:NATURALGAS\" - not found.",
    "   ** Warning ** Output:Meter:MeterFileOnly: invalid Key Name=\"REG LTG:EXTERIORLIGHTS:ELECTRICITY\" - not found.",
    "   ** Warning ** Output:Meter:MeterFileOnly: invalid Key Name=\"WATERSYSTEMS:COAL\" - not found.",
    "   ** Warning ** Output:Meter:MeterFileOnly: invalid Key Name=\"WATERSYSTEMS:DISTRICTCOOLING\" - not found.",
    "   ** Warning ** Output:Meter:MeterFileOnly: invalid Key Name=\"WATERSYSTEMS:DISTRICTHEATING\" - not found.",
    "   ** Warning ** Output:Meter:MeterFileOnly: invalid Key Name=\"WATERSYSTEMS:ELECTRICITY\" - not found.",
    "   ** Warning ** Output:Meter:MeterFileOnly requested for \"Electricity:Facility\" (TimeStep), already on \"Output:Meter\". Will report to both eplusout.eso and eplusout.mtr",
    "   ************* Testing Individual Branch Integrity",
    "   ************* All Branches passed integrity testing",
    "   ************* Testing Individual Supply Air Path Integrity",
    "   ************* All Supply Air Paths passed integrity testing",
    "   ************* Testing Individual Return Air Path Integrity",
    "   ************* All Return Air Paths passed integrity testing",
    "   ************* No node connection errors were found.",
    "   ************* Beginning Simulation",
    "   ** Warning ** In Output:Table:Monthly 'BUILDING ENERGY PERFORMANCE - ELECTRICITY' invalid Variable or Meter Name 'EXTERIORLIGHTS:ELECTRICITY'",
    "   ** Warning ** In Output:Table:Monthly 'BUILDING ENERGY PERFORMANCE - ELECTRICITY' invalid Variable or Meter Name 'EXTERIOREQUIPMENT:ELECTRICITY'",
    "   ** Warning ** In Output:Table:Monthly 'BUILDING ENERGY PERFORMANCE - ELECTRICITY' invalid Variable or Meter Name 'HEATREJECTION:ELECTRICITY'",
    "   ** Warning ** In Output:Table:Monthly 'BUILDING ENERGY PERFORMANCE - ELECTRICITY' invalid Variable or Meter Name 'HUMIDIFIER:ELECTRICITY'",
    "   ** Warning ** In Output:Table:Monthly 'BUILDING ENERGY PERFORMANCE - ELECTRICITY' invalid Variable or Meter Name 'HEATRECOVERY:ELECTRICITY'",
    "   ** Warning ** In Output:Table:Monthly 'BUILDING ENERGY PERFORMANCE - ELECTRICITY' invalid Variable or Meter Name 'WATERSYSTEMS:ELECTRICITY'",
    "   ** Warning ** In Output:Table:Monthly 'BUILDING ENERGY PERFORMANCE - ELECTRICITY' invalid Variable or Meter Name 'COGENERATION:ELECTRICITY'",
    "   ** Warning ** In Output:Table:Monthly 'BUILDING ENERGY PERFORMANCE - ELECTRICITY' invalid Variable or Meter Name 'REFRIGERATION:ELECTRICITY'",
    "   ** Warning ** In Output:Table:Monthly 'BUILDING ENERGY PERFORMANCE - NATURAL GAS' invalid Variable or Meter Name 'INTERIOREQUIPMENT:NATURALGAS'",
    "   ** Warning ** In Output:Table:Monthly 'BUILDING ENERGY PERFORMANCE - NATURAL GAS' invalid Variable or Meter Name 'EXTERIOREQUIPMENT:NATURALGAS'",
    "   ** Warning ** In Output:Table:Monthly 'BUILDING ENERGY PERFORMANCE - NATURAL GAS' invalid Variable or Meter Name 'COOLING:NATURALGAS'",
    "   ** Warning ** In Output:Table:Monthly 'BUILDING ENERGY PERFORMANCE - NATURAL GAS' invalid Variable or Meter Name 'COGENERATION:NATURALGAS'",
    "   ** Warning ** In Output:Table:Monthly 'BUILDING ENERGY PERFORMANCE - DISTRICT HEATING' invalid Variable or Meter Name 'INTERIORLIGHTS:DISTRICTHEATING'",
    "   ** Warning ** In Output:Table:Monthly 'BUILDING ENERGY PERFORMANCE - DISTRICT HEATING' invalid Variable or Meter Name 'EXTERIORLIGHTS:DISTRICTHEATING'",
    "   ** Warning ** In Output:Table:Monthly 'BUILDING ENERGY PERFORMANCE - DISTRICT HEATING' invalid Variable or Meter Name 'INTERIOREQUIPMENT:DISTRICTHEATING'",
    "   ** Warning ** In Output:Table:Monthly 'BUILDING ENERGY PERFORMANCE - DISTRICT HEATING' invalid Variable or Meter Name 'EXTERIOREQUIPMENT:DISTRICTHEATING'",
    "   ** Warning ** In Output:Table:Monthly 'BUILDING ENERGY PERFORMANCE - DISTRICT HEATING' invalid Variable or Meter Name 'FANS:DISTRICTHEATING'",
    "   ** Warning ** In Output:Table:Monthly 'BUILDING ENERGY PERFORMANCE - DISTRICT HEATING' invalid Variable or Meter Name 'PUMPS:DISTRICTHEATING'",
    "   ** Warning ** In Output:Table:Monthly 'BUILDING ENERGY PERFORMANCE - DISTRICT HEATING' invalid Variable or Meter Name 'HEATING:DISTRICTHEATING'",
    "   ** Warning ** In Output:Table:Monthly 'BUILDING ENERGY PERFORMANCE - DISTRICT HEATING' invalid Variable or Meter Name 'COOLING:DISTRICTHEATING'",
    "   ** Warning ** In Output:Table:Monthly 'BUILDING ENERGY PERFORMANCE - DISTRICT HEATING' invalid Variable or Meter Name 'HEATREJECTION:DISTRICTHEATING'",
    "   ** Warning ** In Output:Table:Monthly 'BUILDING ENERGY PERFORMANCE - DISTRICT HEATING' invalid Variable or Meter Name 'HUMIDIFIER:DISTRICTHEATING'",
    "   ** Warning ** In Output:Table:Monthly 'BUILDING ENERGY PERFORMANCE - DISTRICT HEATING' invalid Variable or Meter Name 'HEATRECOVERY:DISTRICTHEATING'",
    "   ** Warning ** In Output:Table:Monthly 'BUILDING ENERGY PERFORMANCE - DISTRICT HEATING' invalid Variable or Meter Name 'WATERSYSTEMS:DISTRICTHEATING'",
    "   ** Warning ** In Output:Table:Monthly 'BUILDING ENERGY PERFORMANCE - DISTRICT HEATING' invalid Variable or Meter Name 'COGENERATION:DISTRICTHEATING'",
    "   ** Warning ** In Output:Table:Monthly 'BUILDING ENERGY PERFORMANCE - DISTRICT COOLING' invalid Variable or Meter Name 'INTERIORLIGHTS:DISTRICTCOOLING'",
    "   ** Warning ** In Output:Table:Monthly 'BUILDING ENERGY PERFORMANCE - DISTRICT COOLING' invalid Variable or Meter Name 'EXTERIORLIGHTS:DISTRICTCOOLING'",
    "   ** Warning ** In Output:Table:Monthly 'BUILDING ENERGY PERFORMANCE - DISTRICT COOLING' invalid Variable or Meter Name 'INTERIOREQUIPMENT:DISTRICTCOOLING'",
    "   ** Warning ** In Output:Table:Monthly 'BUILDING ENERGY PERFORMANCE - DISTRICT COOLING' invalid Variable or Meter Name 'EXTERIOREQUIPMENT:DISTRICTCOOLING'",
    "   ** Warning ** In Output:Table:Monthly 'BUILDING ENERGY PERFORMANCE - DISTRICT COOLING' invalid Variable or Meter Name 'FANS:DISTRICTCOOLING'",
    "   ** Warning ** In Output:Table:Monthly 'BUILDING ENERGY PERFORMANCE - DISTRICT COOLING' invalid Variable or Meter Name 'PUMPS:DISTRICTCOOLING'",
    "   ** Warning ** In Output:Table:Monthly 'BUILDING ENERGY PERFORMANCE - DISTRICT COOLING' invalid Variable or Meter Name 'HEATING:DISTRICTCOOLING'",
    "   ** Warning ** In Output:Table:Monthly 'BUILDING ENERGY PERFORMANCE - DISTRICT COOLING' invalid Variable or Meter Name 'COOLING:DISTRICTCOOLING'",
    "   ** Warning ** In Output:Table:Monthly 'BUILDING ENERGY PERFORMANCE - DISTRICT COOLING' invalid Variable or Meter Name 'HEATREJECTION:DISTRICTCOOLING'",
    "   ** Warning ** In Output:Table:Monthly 'BUILDING ENERGY PERFORMANCE - DISTRICT COOLING' invalid Variable or Meter Name 'HUMIDIFIER:DISTRICTCOOLING'",
    "   ** Warning ** In Output:Table:Monthly 'BUILDING ENERGY PERFORMANCE - DISTRICT COOLING' invalid Variable or Meter Name 'HEATRECOVERY:DISTRICTCOOLING'",
    "   ** Warning ** In Output:Table:Monthly 'BUILDING ENERGY PERFORMANCE - DISTRICT COOLING' invalid Variable or Meter Name 'WATERSYSTEMS:DISTRICTCOOLING'",
    "   ** Warning ** In Output:Table:Monthly 'BUILDING ENERGY PERFORMANCE - DISTRICT COOLING' invalid Variable or Meter Name 'COGENERATION:DISTRICTCOOLING'",
    "   ** Warning ** In Output:Table:Monthly 'BUILDING ENERGY PERFORMANCE - ELECTRICITY PEAK DEMAND' invalid Variable or Meter Name 'EXTERIORLIGHTS:ELECTRICITY'",
    "   ** Warning ** In Output:Table:Monthly 'BUILDING ENERGY PERFORMANCE - ELECTRICITY PEAK DEMAND' invalid Variable or Meter Name 'EXTERIOREQUIPMENT:ELECTRICITY'",
    "   ** Warning ** In Output:Table:Monthly 'BUILDING ENERGY PERFORMANCE - ELECTRICITY PEAK DEMAND' invalid Variable or Meter Name 'HEATREJECTION:ELECTRICITY'",
    "   ** Warning ** In Output:Table:Monthly 'BUILDING ENERGY PERFORMANCE - ELECTRICITY PEAK DEMAND' invalid Variable or Meter Name 'HUMIDIFIER:ELECTRICITY'",
    "   ** Warning ** In Output:Table:Monthly 'BUILDING ENERGY PERFORMANCE - ELECTRICITY PEAK DEMAND' invalid Variable or Meter Name 'HEATRECOVERY:ELECTRICITY'",
    "   ** Warning ** In Output:Table:Monthly 'BUILDING ENERGY PERFORMANCE - ELECTRICITY PEAK DEMAND' invalid Variable or Meter Name 'WATERSYSTEMS:ELECTRICITY'",
    "   ** Warning ** In Output:Table:Monthly 'BUILDING ENERGY PERFORMANCE - ELECTRICITY PEAK DEMAND' invalid Variable or Meter Name 'COGENERATION:ELECTRICITY'",
    "   ** Warning ** In Output:Table:Monthly 'BUILDING ENERGY PERFORMANCE - NATURAL GAS PEAK DEMAND' invalid Variable or Meter Name 'INTERIOREQUIPMENT:NATURALGAS'",
    "   ** Warning ** In Output:Table:Monthly 'BUILDING ENERGY PERFORMANCE - NATURAL GAS PEAK DEMAND' invalid Variable or Meter Name 'EXTERIOREQUIPMENT:NATURALGAS'",
    "   ** Warning ** In Output:Table:Monthly 'BUILDING ENERGY PERFORMANCE - NATURAL GAS PEAK DEMAND' invalid Variable or Meter Name 'COOLING:NATURALGAS'",
    "   ** Warning ** In Output:Table:Monthly 'BUILDING ENERGY PERFORMANCE - NATURAL GAS PEAK DEMAND' invalid Variable or Meter Name 'COGENERATION:NATURALGAS'",
    "   ** Warning ** In Output:Table:Monthly 'BUILDING ENERGY PERFORMANCE - DISTRICT HEATING PEAK DEMAND' invalid Variable or Meter Name 'DISTRICTHEATING:FACILITY'",
    "   ** Warning ** In Output:Table:Monthly 'BUILDING ENERGY PERFORMANCE - DISTRICT HEATING PEAK DEMAND' invalid Variable or Meter Name 'INTERIORLIGHTS:DISTRICTHEATING'",
    "   ** Warning ** In Output:Table:Monthly 'BUILDING ENERGY PERFORMANCE - DISTRICT HEATING PEAK DEMAND' invalid Variable or Meter Name 'EXTERIORLIGHTS:DISTRICTHEATING'",
    "   ** Warning ** In Output:Table:Monthly 'BUILDING ENERGY PERFORMANCE - DISTRICT HEATING PEAK DEMAND' invalid Variable or Meter Name 'INTERIOREQUIPMENT:DISTRICTHEATING'",
    "   ** Warning ** In Output:Table:Monthly 'BUILDING ENERGY PERFORMANCE - DISTRICT HEATING PEAK DEMAND' invalid Variable or Meter Name 'EXTERIOREQUIPMENT:DISTRICTHEATING'",
    "   ** Warning ** In Output:Table:Monthly 'BUILDING ENERGY PERFORMANCE - DISTRICT HEATING PEAK DEMAND' invalid Variable or Meter Name 'FANS:DISTRICTHEATING'",
    "   ** Warning ** In Output:Table:Monthly 'BUILDING ENERGY PERFORMANCE - DISTRICT HEATING PEAK DEMAND' invalid Variable or Meter Name 'PUMPS:DISTRICTHEATING'",
    "   ** Warning ** In Output:Table:Monthly 'BUILDING ENERGY PERFORMANCE - DISTRICT HEATING PEAK DEMAND' invalid Variable or Meter Name 'HEATING:DISTRICTHEATING'",
    "   ** Warning ** In Output:Table:Monthly 'BUILDING ENERGY PERFORMANCE - DISTRICT HEATING PEAK DEMAND' invalid Variable or Meter Name 'COOLING:DISTRICTHEATING'",
    "   ** Warning ** In Output:Table:Monthly 'BUILDING ENERGY PERFORMANCE - DISTRICT HEATING PEAK DEMAND' invalid Variable or Meter Name 'HEATREJECTION:DISTRICTHEATING'",
    "   ** Warning ** In Output:Table:Monthly 'BUILDING ENERGY PERFORMANCE - DISTRICT HEATING PEAK DEMAND' invalid Variable or Meter Name 'HUMIDIFIER:DISTRICTHEATING'",
    "   ** Warning ** In Output:Table:Monthly 'BUILDING ENERGY PERFORMANCE - DISTRICT HEATING PEAK DEMAND' invalid Variable or Meter Name 'HEATRECOVERY:DISTRICTHEATING'",
    "   ** Warning ** In Output:Table:Monthly 'BUILDING ENERGY PERFORMANCE - DISTRICT HEATING PEAK DEMAND' invalid Variable or Meter Name 'WATERSYSTEMS:DISTRICTHEATING'",
    "   ** Warning ** In Output:Table:Monthly 'BUILDING ENERGY PERFORMANCE - DISTRICT HEATING PEAK DEMAND' invalid Variable or Meter Name 'COGENERATION:DISTRICTHEATING'",
    "   ** Warning ** In Output:Table:Monthly 'BUILDING ENERGY PERFORMANCE - DISTRICT COOLING PEAK DEMAND' invalid Variable or Meter Name 'DISTRICTCOOLING:FACILITY'",
    "   ** Warning ** In Output:Table:Monthly 'BUILDING ENERGY PERFORMANCE - DISTRICT COOLING PEAK DEMAND' invalid Variable or Meter Name 'INTERIORLIGHTS:DISTRICTCOOLING'",
    "   ** Warning ** In Output:Table:Monthly 'BUILDING ENERGY PERFORMANCE - DISTRICT COOLING PEAK DEMAND' invalid Variable or Meter Name 'EXTERIORLIGHTS:DISTRICTCOOLING'",
    "   ** Warning ** In Output:Table:Monthly 'BUILDING ENERGY PERFORMANCE - DISTRICT COOLING PEAK DEMAND' invalid Variable or Meter Name 'INTERIOREQUIPMENT:DISTRICTCOOLING'",
    "   ** Warning ** In Output:Table:Monthly 'BUILDING ENERGY PERFORMANCE - DISTRICT COOLING PEAK DEMAND' invalid Variable or Meter Name 'EXTERIOREQUIPMENT:DISTRICTCOOLING'",
    "   ** Warning ** In Output:Table:Monthly 'BUILDING ENERGY PERFORMANCE - DISTRICT COOLING PEAK DEMAND' invalid Variable or Meter Name 'FANS:DISTRICTCOOLING'",
    "   ** Warning ** In Output:Table:Monthly 'BUILDING ENERGY PERFORMANCE - DISTRICT COOLING PEAK DEMAND' invalid Variable or Meter Name 'PUMPS:DISTRICTCOOLING'",
    "   ** Warning ** In Output:Table:Monthly 'BUILDING ENERGY PERFORMANCE - DISTRICT COOLING PEAK DEMAND' invalid Variable or Meter Name 'HEATING:DISTRICTCOOLING'",
    "   ** Warning ** In Output:Table:Monthly 'BUILDING ENERGY PERFORMANCE - DISTRICT COOLING PEAK DEMAND' invalid Variable or Meter Name 'COOLING:DISTRICTCOOLING'",
    "   ** Warning ** In Output:Table:Monthly 'BUILDING ENERGY PERFORMANCE - DISTRICT COOLING PEAK DEMAND' invalid Variable or Meter Name 'HEATREJECTION:DISTRICTCOOLING'",
    "   ** Warning ** In Output:Table:Monthly 'BUILDING ENERGY PERFORMANCE - DISTRICT COOLING PEAK DEMAND' invalid Variable or Meter Name 'HUMIDIFIER:DISTRICTCOOLING'",
    "   ** Warning ** In Output:Table:Monthly 'BUILDING ENERGY PERFORMANCE - DISTRICT COOLING PEAK DEMAND' invalid Variable or Meter Name 'HEATRECOVERY:DISTRICTCOOLING'",
    "   ** Warning ** In Output:Table:Monthly 'BUILDING ENERGY PERFORMANCE - DISTRICT COOLING PEAK DEMAND' invalid Variable or Meter Name 'WATERSYSTEMS:DISTRICTCOOLING'",
    "   ** Warning ** In Output:Table:Monthly 'BUILDING ENERGY PERFORMANCE - DISTRICT COOLING PEAK DEMAND' invalid Variable or Meter Name 'COGENERATION:DISTRICTCOOLING'",
    "   ** Warning ** Processing Monthly Tabular Reports: Variable names not valid for this simulation",
    "   **   ~~~   ** ...use Output:Diagnostics,DisplayExtraWarnings; to show more details on individual variables.",
    "   ** Warning ** CalcDoe2DXCoil: Coil:Cooling:DX:SingleSpeed \"PERIM2ZNCOOLINGCOIL\" - Air-cooled condenser inlet dry-bulb temperature below 0 C. Outdoor dry-bulb temperature = -4.33",
    "   **   ~~~   **  ... Occurrence info = LOS-ANGELES-INTL_722950_CZ2010, 01/01 00:05 - 00:10",
    "   **   ~~~   ** ... Operation at low ambient temperatures may require special performance curves.",
    "   ** Warning ** CalcDoe2DXCoil: Coil:Cooling:DX:SingleSpeed \"PERIM2ZNCOOLINGCOIL\" - Full load outlet air dry-bulb temperature < 2C. This indicates the possibility of coil frost/freeze. Outlet temperature = -0.37 C.",
    "   **   ~~~   **  ...Occurrence info = LOS-ANGELES-INTL_722950_CZ2010, 01/01 00:05 - 00:10",
    "   **   ~~~   ** ... Possible reasons for low outlet air dry-bulb temperatures are: This DX coil",
    "   **   ~~~   **    1) may have a low inlet air dry-bulb temperature. Inlet air temperature = 15.224 C.",
    "   **   ~~~   **    2) may have a low air flow rate per watt of cooling capacity. Check inputs.",
    "   **   ~~~   **    3) is used as part of a HX assisted cooling coil which uses a high sensible effectiveness. Check inputs.",
    "   ** Warning ** The resource referenced by LifeCycleCost:UsePriceEscalation= \"U.S. AVG  COMMERCIAL-ELECTRICITY\" has no energy cost. ",
    "   **   ~~~   ** ... It is likely that the wrong resource is used. The resource should match the meter used in Utility:Tariff.",
    "   ** Warning ** The resource referenced by LifeCycleCost:UsePriceEscalation= \"U.S. AVG  COMMERCIAL-DISTILLATE OIL\" has no energy cost. ",
    "   **   ~~~   ** ... It is likely that the wrong resource is used. The resource should match the meter used in Utility:Tariff.",
    "   ** Warning ** The resource referenced by LifeCycleCost:UsePriceEscalation= \"U.S. AVG  COMMERCIAL-RESIDUAL OIL\" has no energy cost. ",
    "   **   ~~~   ** ... It is likely that the wrong resource is used. The resource should match the meter used in Utility:Tariff.",
    "   ** Warning ** The resource referenced by LifeCycleCost:UsePriceEscalation= \"U.S. AVG  COMMERCIAL-NATURAL GAS\" has no energy cost. ",
    "   **   ~~~   ** ... It is likely that the wrong resource is used. The resource should match the meter used in Utility:Tariff.",
    "   ** Warning ** The resource referenced by LifeCycleCost:UsePriceEscalation= \"U.S. AVG  COMMERCIAL-COAL\" has no energy cost. ",
    "   **   ~~~   ** ... It is likely that the wrong resource is used. The resource should match the meter used in Utility:Tariff.",
    "   ************* Simulation Error Summary *************",
    "   ************* There are 11 unused schedules in input.",
    "   ************* There are 6 unused week schedules in input.",
    "   ************* There are 23 unused day schedules in input.",
    "   ************* Use Output:Diagnostics,DisplayUnusedSchedules; to see them.",
    "   *************",
    "   ************* ===== Recurring Error Summary =====",
    "   ************* The following recurring error messages occurred.",
    "   *************",
    "   *************  ** Warning ** CalcDoe2DXCoil: Coil:Cooling:DX:SingleSpeed=\"FURNACE DUMMY COILCLG\" - Air volume flow rate per watt of rated total cooling capacity is out of range error continues...",
    "   *************  **   ~~~   **   This error occurred 1 total times;",
    "   *************  **   ~~~   **   during Warmup 0 times;",
    "   *************  **   ~~~   **   during Sizing 0 times.",
    "   *************  **   ~~~   **   Max=1.056933  Min=1.056933",
    "   *************",
    "   *************  ** Warning ** CalcDoe2DXCoil: Coil:Cooling:DX:SingleSpeed=\"PERIM2ZNCOOLINGCOIL\" - Low condenser dry-bulb temperature error continues...",
    "   *************  **   ~~~   **   This error occurred 650 total times;",
    "   *************  **   ~~~   **   during Warmup 0 times;",
    "   *************  **   ~~~   **   during Sizing 0 times.",
    "   *************  **   ~~~   **   Max=-0.15 [C]  Min=-21.55 [C]",
    "   *************",
    "   *************  ** Warning ** CalcDoe2DXCoil: Coil:Cooling:DX:SingleSpeed=\"PERIM2ZNCOOLINGCOIL\" - Full load outlet temperature indicates a possibility of frost/freeze error continues. Outlet air temperature statistics follow:",
    "   *************  **   ~~~   **   This error occurred 953 total times;",
    "   *************  **   ~~~   **   during Warmup 0 times;",
    "   *************  **   ~~~   **   during Sizing 0 times.",
    "   *************  **   ~~~   **   Max=1.999514  Min=-2.108194",
    "   *************",
    "   ************* EnergyPlus Warmup Error Summary. During Warmup: 0 Warning; 0 Severe Errors.",
    "   ************* EnergyPlus Sizing Error Summary. During Sizing: 22 Warning; 0 Severe Errors.",
    "   ************* EnergyPlus Completed Successfully-- 1802 Warning; 0 Severe Errors; "
  ],
  "file_paths": [
    "/home/julien/Software/Others/OpenStudio-resources/testruns/020006_OffSml_Run18.xml/generated_files",
    "./files",
    "./weather",
    "../../files",
    "../../weather",
    "./"
  ],
  "seed_file": "in.osm",
  "steps": [
    {
      "arguments": {
      },
      "measure_dir_name": "openstudio_results",
      "result": {
        "measure_class_name": "OpenStudioResults",
        "measure_display_name": "OpenStudio Results",
        "measure_name": "openstudio_results",
        "measure_taxonomy": "Reporting.QAQC",
        "measure_type": "ReportingMeasure",
        "measure_uid": "a25386cd-60e4-46bc-8b11-c755f379d916",
        "measure_version_id": "02ad7007-fe7b-4747-bd7a-29d697c4d91a",
        "measure_version_modified": "20180711T183039Z",
        "measure_xml_checksum": "557BF06F",
        "stderr": "",
        "stdout": "",
        "step_errors": [

        ],
        "step_final_condition": "Generated report with 20 sections to ./report.html.",
        "step_info": [

        ],
        "step_initial_condition": "Gathering data from EnergyPlus SQL file and OSM model.",
        "step_result": "Success",
        "step_values": [
          {
            "name": "building_summary_section",
            "value": true
          },
          {
            "name": "annual_overview_section",
            "value": true
          },
          {
            "name": "monthly_overview_section",
            "value": true
          },
          {
            "name": "utility_bills_rates_section",
            "value": true
          },
          {
            "name": "envelope_section_section",
            "value": true
          },
          {
            "name": "space_type_breakdown_section",
            "value": true
          },
          {
            "name": "space_type_details_section",
            "value": true
          },
          {
            "name": "interior_lighting_section",
            "value": true
          },
          {
            "name": "plug_loads_section",
            "value": true
          },
          {
            "name": "exterior_light_section",
            "value": true
          },
          {
            "name": "water_use_section",
            "value": true
          },
          {
            "name": "hvac_load_profile",
            "value": true
          },
          {
            "name": "zone_condition_section",
            "value": true
          },
          {
            "name": "zone_summary_section",
            "value": true
          },
          {
            "name": "zone_equipment_detail_section",
            "value": true
          },
          {
            "name": "air_loops_detail_section",
            "value": true
          },
          {
            "name": "plant_loops_detail_section",
            "value": true
          },
          {
            "name": "outdoor_air_section",
            "value": true
          },
          {
            "name": "cost_summary_section",
            "value": true
          },
          {
            "name": "source_energy_section",
            "value": true
          },
          {
            "name": "schedules_overview_section",
            "value": true
          },
          {
            "name": "standards_gem_version",
            "value": "0.2.14"
          },
          {
            "name": "workflow_gem_version",
            "value": "2.2.1"
          },
          {
            "display_name": "Small Office",
            "name": "building_name",
            "value": "n/a"
          },
          {
            "name": "total_site_energy",
            "units": "kBtu",
            "value": 373269.34
          },
          {
            "name": "net_site_energy",
            "units": "kBtu",
            "value": 373269.34
          },
          {
            "name": "total_building_area",
            "units": "ft^2",
            "value": 11615.77
          },
          {
            "name": "total_site_eui",
            "units": "kBtu/ft^2",
            "value": 32.13
          },
          {
            "name": "eui",
            "units": "kBtu/ft^2",
            "value": 32.13
          },
          {
            "name": "unmet_hours_during_heating",
            "units": "hr",
            "value": 1269.0
          },
          {
            "name": "unmet_hours_during_cooling",
            "units": "hr",
            "value": 150.5
          },
          {
            "name": "unmet_hours_during_occupied_heating",
            "units": "hr",
            "value": 691.5
          },
          {
            "name": "unmet_hours_during_occupied_cooling",
            "units": "hr",
            "value": 149.75
          },
          {
            "name": "unmet_hours_tolerance_heating",
            "units": "F",
            "value": 1.01
          },
          {
            "name": "unmet_hours_tolerance_cooling",
            "units": "F",
            "value": 1.01
          },
          {
            "name": "electricity_heating_ip",
            "units": "kWh",
            "value": 2839.13
          },
          {
            "name": "electricity_cooling_ip",
            "units": "kWh",
            "value": 5389.42
          },
          {
            "name": "electricity_interior_lighting_ip",
            "units": "kWh",
            "value": 8821.83
          },
          {
            "name": "electricity_exterior_lighting_ip",
            "units": "kWh",
            "value": 0.0
          },
          {
            "name": "electricity_interior_equipment_ip",
            "units": "kWh",
            "value": 23566.68
          },
          {
            "name": "electricity_exterior_equipment_ip",
            "units": "kWh",
            "value": 0.0
          },
          {
            "name": "electricity_fans_ip",
            "units": "kWh",
            "value": 24447.72
          },
          {
            "name": "electricity_pumps_ip",
            "units": "kWh",
            "value": 0.0
          },
          {
            "name": "electricity_heat_rejection_ip",
            "units": "kWh",
            "value": 0.0
          },
          {
            "name": "electricity_humidification_ip",
            "units": "kWh",
            "value": 0.0
          },
          {
            "name": "electricity_heat_recovery_ip",
            "units": "kWh",
            "value": 0.0
          },
          {
            "name": "electricity_water_systems_ip",
            "units": "kWh",
            "value": 0.0
          },
          {
            "name": "electricity_refrigeration_ip",
            "units": "kWh",
            "value": 0.0
          },
          {
            "name": "electricity_generators_ip",
            "units": "kWh",
            "value": 0.0
          },
          {
            "name": "electricity_ip",
            "units": "kWh",
            "value": 65064.78
          },
          {
            "name": "natural_gas_heating_ip",
            "units": "MBtu",
            "value": 135.31
          },
          {
            "name": "natural_gas_cooling_ip",
            "units": "MBtu",
            "value": 0.0
          },
          {
            "name": "natural_gas_interior_lighting_ip",
            "units": "MBtu",
            "value": 0.0
          },
          {
            "name": "natural_gas_exterior_lighting_ip",
            "units": "MBtu",
            "value": 0.0
          },
          {
            "name": "natural_gas_interior_equipment_ip",
            "units": "MBtu",
            "value": 0.0
          },
          {
            "name": "natural_gas_exterior_equipment_ip",
            "units": "MBtu",
            "value": 0.0
          },
          {
            "name": "natural_gas_fans_ip",
            "units": "MBtu",
            "value": 0.0
          },
          {
            "name": "natural_gas_pumps_ip",
            "units": "MBtu",
            "value": 0.0
          },
          {
            "name": "natural_gas_heat_rejection_ip",
            "units": "MBtu",
            "value": 0.0
          },
          {
            "name": "natural_gas_humidification_ip",
            "units": "MBtu",
            "value": 0.0
          },
          {
            "name": "natural_gas_heat_recovery_ip",
            "units": "MBtu",
            "value": 0.0
          },
          {
            "name": "natural_gas_water_systems_ip",
            "units": "MBtu",
            "value": 15.95
          },
          {
            "name": "natural_gas_refrigeration_ip",
            "units": "MBtu",
            "value": 0.0
          },
          {
            "name": "natural_gas_generators_ip",
            "units": "MBtu",
            "value": 0.0
          },
          {
            "name": "natural_gas_ip",
            "units": "MBtu",
            "value": 151.26
          },
          {
            "name": "gasoline_heating_ip",
            "units": "MBtu",
            "value": 0.0
          },
          {
            "name": "gasoline_cooling_ip",
            "units": "MBtu",
            "value": 0.0
          },
          {
            "name": "gasoline_interior_lighting_ip",
            "units": "MBtu",
            "value": 0.0
          },
          {
            "name": "gasoline_exterior_lighting_ip",
            "units": "MBtu",
            "value": 0.0
          },
          {
            "name": "gasoline_interior_equipment_ip",
            "units": "MBtu",
            "value": 0.0
          },
          {
            "name": "gasoline_exterior_equipment_ip",
            "units": "MBtu",
            "value": 0.0
          },
          {
            "name": "gasoline_fans_ip",
            "units": "MBtu",
            "value": 0.0
          },
          {
            "name": "gasoline_pumps_ip",
            "units": "MBtu",
            "value": 0.0
          },
          {
            "name": "gasoline_heat_rejection_ip",
            "units": "MBtu",
            "value": 0.0
          },
          {
            "name": "gasoline_humidification_ip",
            "units": "MBtu",
            "value": 0.0
          },
          {
            "name": "gasoline_heat_recovery_ip",
            "units": "MBtu",
            "value": 0.0
          },
          {
            "name": "gasoline_water_systems_ip",
            "units": "MBtu",
            "value": 0.0
          },
          {
            "name": "gasoline_refrigeration_ip",
            "units": "MBtu",
            "value": 0.0
          },
          {
            "name": "gasoline_generators_ip",
            "units": "MBtu",
            "value": 0.0
          },
          {
            "name": "gasoline_ip",
            "units": "MBtu",
            "value": 0.0
          },
          {
            "name": "diesel_heating_ip",
            "units": "MBtu",
            "value": 0.0
          },
          {
            "name": "diesel_cooling_ip",
            "units": "MBtu",
            "value": 0.0
          },
          {
            "name": "diesel_interior_lighting_ip",
            "units": "MBtu",
            "value": 0.0
          },
          {
            "name": "diesel_exterior_lighting_ip",
            "units": "MBtu",
            "value": 0.0
          },
          {
            "name": "diesel_interior_equipment_ip",
            "units": "MBtu",
            "value": 0.0
          },
          {
            "name": "diesel_exterior_equipment_ip",
            "units": "MBtu",
            "value": 0.0
          },
          {
            "name": "diesel_fans_ip",
            "units": "MBtu",
            "value": 0.0
          },
          {
            "name": "diesel_pumps_ip",
            "units": "MBtu",
            "value": 0.0
          },
          {
            "name": "diesel_heat_rejection_ip",
            "units": "MBtu",
            "value": 0.0
          },
          {
            "name": "diesel_humidification_ip",
            "units": "MBtu",
            "value": 0.0
          },
          {
            "name": "diesel_heat_recovery_ip",
            "units": "MBtu",
            "value": 0.0
          },
          {
            "name": "diesel_water_systems_ip",
            "units": "MBtu",
            "value": 0.0
          },
          {
            "name": "diesel_refrigeration_ip",
            "units": "MBtu",
            "value": 0.0
          },
          {
            "name": "diesel_generators_ip",
            "units": "MBtu",
            "value": 0.0
          },
          {
            "name": "diesel_ip",
            "units": "MBtu",
            "value": 0.0
          },
          {
            "name": "coal_heating_ip",
            "units": "MBtu",
            "value": 0.0
          },
          {
            "name": "coal_cooling_ip",
            "units": "MBtu",
            "value": 0.0
          },
          {
            "name": "coal_interior_lighting_ip",
            "units": "MBtu",
            "value": 0.0
          },
          {
            "name": "coal_exterior_lighting_ip",
            "units": "MBtu",
            "value": 0.0
          },
          {
            "name": "coal_interior_equipment_ip",
            "units": "MBtu",
            "value": 0.0
          },
          {
            "name": "coal_exterior_equipment_ip",
            "units": "MBtu",
            "value": 0.0
          },
          {
            "name": "coal_fans_ip",
            "units": "MBtu",
            "value": 0.0
          },
          {
            "name": "coal_pumps_ip",
            "units": "MBtu",
            "value": 0.0
          },
          {
            "name": "coal_heat_rejection_ip",
            "units": "MBtu",
            "value": 0.0
          },
          {
            "name": "coal_humidification_ip",
            "units": "MBtu",
            "value": 0.0
          },
          {
            "name": "coal_heat_recovery_ip",
            "units": "MBtu",
            "value": 0.0
          },
          {
            "name": "coal_water_systems_ip",
            "units": "MBtu",
            "value": 0.0
          },
          {
            "name": "coal_refrigeration_ip",
            "units": "MBtu",
            "value": 0.0
          },
          {
            "name": "coal_generators_ip",
            "units": "MBtu",
            "value": 0.0
          },
          {
            "name": "coal_ip",
            "units": "MBtu",
            "value": 0.0
          },
          {
            "name": "fuel_oil_no_1_heating_ip",
            "units": "MBtu",
            "value": 0.0
          },
          {
            "name": "fuel_oil_no_1_cooling_ip",
            "units": "MBtu",
            "value": 0.0
          },
          {
            "name": "fuel_oil_no_1_interior_lighting_ip",
            "units": "MBtu",
            "value": 0.0
          },
          {
            "name": "fuel_oil_no_1_exterior_lighting_ip",
            "units": "MBtu",
            "value": 0.0
          },
          {
            "name": "fuel_oil_no_1_interior_equipment_ip",
            "units": "MBtu",
            "value": 0.0
          },
          {
            "name": "fuel_oil_no_1_exterior_equipment_ip",
            "units": "MBtu",
            "value": 0.0
          },
          {
            "name": "fuel_oil_no_1_fans_ip",
            "units": "MBtu",
            "value": 0.0
          },
          {
            "name": "fuel_oil_no_1_pumps_ip",
            "units": "MBtu",
            "value": 0.0
          },
          {
            "name": "fuel_oil_no_1_heat_rejection_ip",
            "units": "MBtu",
            "value": 0.0
          },
          {
            "name": "fuel_oil_no_1_humidification_ip",
            "units": "MBtu",
            "value": 0.0
          },
          {
            "name": "fuel_oil_no_1_heat_recovery_ip",
            "units": "MBtu",
            "value": 0.0
          },
          {
            "name": "fuel_oil_no_1_water_systems_ip",
            "units": "MBtu",
            "value": 0.0
          },
          {
            "name": "fuel_oil_no_1_refrigeration_ip",
            "units": "MBtu",
            "value": 0.0
          },
          {
            "name": "fuel_oil_no_1_generators_ip",
            "units": "MBtu",
            "value": 0.0
          },
          {
            "name": "fuel_oil_no_1_ip",
            "units": "MBtu",
            "value": 0.0
          },
          {
            "name": "fuel_oil_no_2_heating_ip",
            "units": "MBtu",
            "value": 0.0
          },
          {
            "name": "fuel_oil_no_2_cooling_ip",
            "units": "MBtu",
            "value": 0.0
          },
          {
            "name": "fuel_oil_no_2_interior_lighting_ip",
            "units": "MBtu",
            "value": 0.0
          },
          {
            "name": "fuel_oil_no_2_exterior_lighting_ip",
            "units": "MBtu",
            "value": 0.0
          },
          {
            "name": "fuel_oil_no_2_interior_equipment_ip",
            "units": "MBtu",
            "value": 0.0
          },
          {
            "name": "fuel_oil_no_2_exterior_equipment_ip",
            "units": "MBtu",
            "value": 0.0
          },
          {
            "name": "fuel_oil_no_2_fans_ip",
            "units": "MBtu",
            "value": 0.0
          },
          {
            "name": "fuel_oil_no_2_pumps_ip",
            "units": "MBtu",
            "value": 0.0
          },
          {
            "name": "fuel_oil_no_2_heat_rejection_ip",
            "units": "MBtu",
            "value": 0.0
          },
          {
            "name": "fuel_oil_no_2_humidification_ip",
            "units": "MBtu",
            "value": 0.0
          },
          {
            "name": "fuel_oil_no_2_heat_recovery_ip",
            "units": "MBtu",
            "value": 0.0
          },
          {
            "name": "fuel_oil_no_2_water_systems_ip",
            "units": "MBtu",
            "value": 0.0
          },
          {
            "name": "fuel_oil_no_2_refrigeration_ip",
            "units": "MBtu",
            "value": 0.0
          },
          {
            "name": "fuel_oil_no_2_generators_ip",
            "units": "MBtu",
            "value": 0.0
          },
          {
            "name": "fuel_oil_no_2_ip",
            "units": "MBtu",
            "value": 0.0
          },
          {
            "name": "propane_heating_ip",
            "units": "MBtu",
            "value": 0.0
          },
          {
            "name": "propane_cooling_ip",
            "units": "MBtu",
            "value": 0.0
          },
          {
            "name": "propane_interior_lighting_ip",
            "units": "MBtu",
            "value": 0.0
          },
          {
            "name": "propane_exterior_lighting_ip",
            "units": "MBtu",
            "value": 0.0
          },
          {
            "name": "propane_interior_equipment_ip",
            "units": "MBtu",
            "value": 0.0
          },
          {
            "name": "propane_exterior_equipment_ip",
            "units": "MBtu",
            "value": 0.0
          },
          {
            "name": "propane_fans_ip",
            "units": "MBtu",
            "value": 0.0
          },
          {
            "name": "propane_pumps_ip",
            "units": "MBtu",
            "value": 0.0
          },
          {
            "name": "propane_heat_rejection_ip",
            "units": "MBtu",
            "value": 0.0
          },
          {
            "name": "propane_humidification_ip",
            "units": "MBtu",
            "value": 0.0
          },
          {
            "name": "propane_heat_recovery_ip",
            "units": "MBtu",
            "value": 0.0
          },
          {
            "name": "propane_water_systems_ip",
            "units": "MBtu",
            "value": 0.0
          },
          {
            "name": "propane_refrigeration_ip",
            "units": "MBtu",
            "value": 0.0
          },
          {
            "name": "propane_generators_ip",
            "units": "MBtu",
            "value": 0.0
          },
          {
            "name": "propane_ip",
            "units": "MBtu",
            "value": 0.0
          },
          {
            "name": "other_fuel_1_heating_ip",
            "units": "MBtu",
            "value": 0.0
          },
          {
            "name": "other_fuel_1_cooling_ip",
            "units": "MBtu",
            "value": 0.0
          },
          {
            "name": "other_fuel_1_interior_lighting_ip",
            "units": "MBtu",
            "value": 0.0
          },
          {
            "name": "other_fuel_1_exterior_lighting_ip",
            "units": "MBtu",
            "value": 0.0
          },
          {
            "name": "other_fuel_1_interior_equipment_ip",
            "units": "MBtu",
            "value": 0.0
          },
          {
            "name": "other_fuel_1_exterior_equipment_ip",
            "units": "MBtu",
            "value": 0.0
          },
          {
            "name": "other_fuel_1_fans_ip",
            "units": "MBtu",
            "value": 0.0
          },
          {
            "name": "other_fuel_1_pumps_ip",
            "units": "MBtu",
            "value": 0.0
          },
          {
            "name": "other_fuel_1_heat_rejection_ip",
            "units": "MBtu",
            "value": 0.0
          },
          {
            "name": "other_fuel_1_humidification_ip",
            "units": "MBtu",
            "value": 0.0
          },
          {
            "name": "other_fuel_1_heat_recovery_ip",
            "units": "MBtu",
            "value": 0.0
          },
          {
            "name": "other_fuel_1_water_systems_ip",
            "units": "MBtu",
            "value": 0.0
          },
          {
            "name": "other_fuel_1_refrigeration_ip",
            "units": "MBtu",
            "value": 0.0
          },
          {
            "name": "other_fuel_1_generators_ip",
            "units": "MBtu",
            "value": 0.0
          },
          {
            "name": "other_fuel_1_ip",
            "units": "MBtu",
            "value": 0.0
          },
          {
            "name": "other_fuel_2_heating_ip",
            "units": "MBtu",
            "value": 0.0
          },
          {
            "name": "other_fuel_2_cooling_ip",
            "units": "MBtu",
            "value": 0.0
          },
          {
            "name": "other_fuel_2_interior_lighting_ip",
            "units": "MBtu",
            "value": 0.0
          },
          {
            "name": "other_fuel_2_exterior_lighting_ip",
            "units": "MBtu",
            "value": 0.0
          },
          {
            "name": "other_fuel_2_interior_equipment_ip",
            "units": "MBtu",
            "value": 0.0
          },
          {
            "name": "other_fuel_2_exterior_equipment_ip",
            "units": "MBtu",
            "value": 0.0
          },
          {
            "name": "other_fuel_2_fans_ip",
            "units": "MBtu",
            "value": 0.0
          },
          {
            "name": "other_fuel_2_pumps_ip",
            "units": "MBtu",
            "value": 0.0
          },
          {
            "name": "other_fuel_2_heat_rejection_ip",
            "units": "MBtu",
            "value": 0.0
          },
          {
            "name": "other_fuel_2_humidification_ip",
            "units": "MBtu",
            "value": 0.0
          },
          {
            "name": "other_fuel_2_heat_recovery_ip",
            "units": "MBtu",
            "value": 0.0
          },
          {
            "name": "other_fuel_2_water_systems_ip",
            "units": "MBtu",
            "value": 0.0
          },
          {
            "name": "other_fuel_2_refrigeration_ip",
            "units": "MBtu",
            "value": 0.0
          },
          {
            "name": "other_fuel_2_generators_ip",
            "units": "MBtu",
            "value": 0.0
          },
          {
            "name": "other_fuel_2_ip",
            "units": "MBtu",
            "value": 0.0
          },
          {
            "name": "district_cooling_heating_ip",
            "units": "MBtu",
            "value": 0.0
          },
          {
            "name": "district_cooling_cooling_ip",
            "units": "MBtu",
            "value": 0.0
          },
          {
            "name": "district_cooling_interior_lighting_ip",
            "units": "MBtu",
            "value": 0.0
          },
          {
            "name": "district_cooling_exterior_lighting_ip",
            "units": "MBtu",
            "value": 0.0
          },
          {
            "name": "district_cooling_interior_equipment_ip",
            "units": "MBtu",
            "value": 0.0
          },
          {
            "name": "district_cooling_exterior_equipment_ip",
            "units": "MBtu",
            "value": 0.0
          },
          {
            "name": "district_cooling_fans_ip",
            "units": "MBtu",
            "value": 0.0
          },
          {
            "name": "district_cooling_pumps_ip",
            "units": "MBtu",
            "value": 0.0
          },
          {
            "name": "district_cooling_heat_rejection_ip",
            "units": "MBtu",
            "value": 0.0
          },
          {
            "name": "district_cooling_humidification_ip",
            "units": "MBtu",
            "value": 0.0
          },
          {
            "name": "district_cooling_heat_recovery_ip",
            "units": "MBtu",
            "value": 0.0
          },
          {
            "name": "district_cooling_water_systems_ip",
            "units": "MBtu",
            "value": 0.0
          },
          {
            "name": "district_cooling_refrigeration_ip",
            "units": "MBtu",
            "value": 0.0
          },
          {
            "name": "district_cooling_generators_ip",
            "units": "MBtu",
            "value": 0.0
          },
          {
            "name": "district_cooling_ip",
            "units": "MBtu",
            "value": 0.0
          },
          {
            "name": "district_heating_heating_ip",
            "units": "MBtu",
            "value": 0.0
          },
          {
            "name": "district_heating_cooling_ip",
            "units": "MBtu",
            "value": 0.0
          },
          {
            "name": "district_heating_interior_lighting_ip",
            "units": "MBtu",
            "value": 0.0
          },
          {
            "name": "district_heating_exterior_lighting_ip",
            "units": "MBtu",
            "value": 0.0
          },
          {
            "name": "district_heating_interior_equipment_ip",
            "units": "MBtu",
            "value": 0.0
          },
          {
            "name": "district_heating_exterior_equipment_ip",
            "units": "MBtu",
            "value": 0.0
          },
          {
            "name": "district_heating_fans_ip",
            "units": "MBtu",
            "value": 0.0
          },
          {
            "name": "district_heating_pumps_ip",
            "units": "MBtu",
            "value": 0.0
          },
          {
            "name": "district_heating_heat_rejection_ip",
            "units": "MBtu",
            "value": 0.0
          },
          {
            "name": "district_heating_humidification_ip",
            "units": "MBtu",
            "value": 0.0
          },
          {
            "name": "district_heating_heat_recovery_ip",
            "units": "MBtu",
            "value": 0.0
          },
          {
            "name": "district_heating_water_systems_ip",
            "units": "MBtu",
            "value": 0.0
          },
          {
            "name": "district_heating_refrigeration_ip",
            "units": "MBtu",
            "value": 0.0
          },
          {
            "name": "district_heating_generators_ip",
            "units": "MBtu",
            "value": 0.0
          },
          {
            "name": "district_heating_ip",
            "units": "MBtu",
            "value": 0.0
          },
          {
            "name": "water_heating_ip",
            "units": "MBtu",
            "value": 0.0
          },
          {
            "name": "water_cooling_ip",
            "units": "MBtu",
            "value": 0.0
          },
          {
            "name": "water_interior_lighting_ip",
            "units": "MBtu",
            "value": 0.0
          },
          {
            "name": "water_exterior_lighting_ip",
            "units": "MBtu",
            "value": 0.0
          },
          {
            "name": "water_interior_equipment_ip",
            "units": "MBtu",
            "value": 0.0
          },
          {
            "name": "water_exterior_equipment_ip",
            "units": "MBtu",
            "value": 0.0
          },
          {
            "name": "water_fans_ip",
            "units": "MBtu",
            "value": 0.0
          },
          {
            "name": "water_pumps_ip",
            "units": "MBtu",
            "value": 0.0
          },
          {
            "name": "water_heat_rejection_ip",
            "units": "MBtu",
            "value": 0.0
          },
          {
            "name": "water_humidification_ip",
            "units": "MBtu",
            "value": 0.0
          },
          {
            "name": "water_heat_recovery_ip",
            "units": "MBtu",
            "value": 0.0
          },
          {
            "name": "water_water_systems_ip",
            "units": "MBtu",
            "value": 0.0
          },
          {
            "name": "water_refrigeration_ip",
            "units": "MBtu",
            "value": 0.0
          },
          {
            "name": "water_generators_ip",
            "units": "MBtu",
            "value": 0.0
          },
          {
            "name": "water_ip",
            "units": "MBtu",
            "value": 0.0
          },
          {
            "name": "nacm_ext_soffit",
            "units": "ft^2",
            "value": 611.6
          },
          {
            "name": "nacm_roof",
            "units": "ft^2",
            "value": 6445.01
          },
          {
            "name": "nacm_wood_framed_wall",
            "units": "ft^2",
            "value": 2387.78
          },
          {
            "name": "fixed_window",
            "units": "ft^2",
            "value": 642.43
          },
          {
            "name": "gross_window_wall_ratio",
            "units": "%",
            "value": 21.2
          },
          {
            "name": "gross_window_wall_ratio_conditioned",
            "units": "%",
            "value": 21.2
          },
          {
            "name": "skylight_roof_ratio",
            "units": "%",
            "value": 0.0
          },
          {
            "name": "space_type_no_space_type",
            "units": "ft^2",
            "value": 11615.71
          },
          {
            "name": "exterior_lighting_total_power",
            "units": "W",
            "value": 0.0
          },
          {
            "name": "exterior_lighting_total_consumption",
            "units": "kWh",
            "value": 109394.44
          },
          {
            "name": "core_zn_water_use_equipment",
            "units": "gal/min",
            "value": 0.02
          },
          {
            "name": "perimeter_zn_1_water_use_equipment",
            "units": "gal/min",
            "value": 0.02
          },
          {
            "name": "perimeter_zn_2_water_use_equipment",
            "units": "gal/min",
            "value": 0.01
          },
          {
            "name": "perimeter_zn_3_water_use_equipment",
            "units": "gal/min",
            "value": 0.02
          },
          {
            "name": "perimeter_zn_4_water_use_equipment",
            "units": "gal/min",
            "value": 0.01
          },
          {
            "name": "inflation_approach",
            "value": "Constant Dollar"
          },
          {
            "name": "analysis_length",
            "units": "yrs",
            "value": 25
          },
          {
            "name": "annual_peak_electric_demand",
            "units": "kW",
            "value": 20.34
          },
          {
            "name": "first_year_capital_cost",
            "units": "$",
            "value": 0.0
          },
          {
            "name": "annual_utility_cost",
            "units": "$",
            "value": 0.0
          },
          {
            "name": "total_lifecycle_cost",
            "units": "$",
            "value": 0.0
          }
        ],
        "step_warnings": [
          "Annual Overview section failed and was skipped because: Optional not initialized. Detail on error follows.",
          "/home/julien/Software/Others/OpenStudio-resources/measures/openstudio_results/resources/os_lib_reporting.rb:501:in `get'\n/home/julien/Software/Others/OpenStudio-resources/measures/openstudio_results/resources/os_lib_reporting.rb:501:in `block in output_data_end_use_table'\n/home/julien/Software/Others/OpenStudio-resources/measures/openstudio_results/resources/os_lib_reporting.rb:491:in `each'\n/home/julien/Software/Others/OpenStudio-resources/measures/openstudio_results/resources/os_lib_reporting.rb:491:in `output_data_end_use_table'\n/home/julien/Software/Others/OpenStudio-resources/measures/openstudio_results/resources/os_lib_reporting.rb:258:in `annual_overview_section'\n(eval):1:in `block in run'\n/home/julien/Software/Others/OpenStudio-resources/measures/openstudio_results/measure.rb:237:in `eval'\n/home/julien/Software/Others/OpenStudio-resources/measures/openstudio_results/measure.rb:237:in `block in run'\n/home/julien/Software/Others/OpenStudio-resources/measures/openstudio_results/measure.rb:233:in `each'\n/home/julien/Software/Others/OpenStudio-resources/measures/openstudio_results/measure.rb:233:in `run'\n:/ruby/2.7.0/gems/openstudio-workflow-2.2.1/lib/openstudio/workflow/util/measure.rb:521:in `apply_measure'\n:/ruby/2.7.0/gems/openstudio-workflow-2.2.1/lib/openstudio/workflow/util/measure.rb:114:in `block in apply_measures'\n:/ruby/2.7.0/gems/openstudio-workflow-2.2.1/lib/openstudio/workflow/util/measure.rb:67:in `each_index'\n:/ruby/2.7.0/gems/openstudio-workflow-2.2.1/lib/openstudio/workflow/util/measure.rb:67:in `apply_measures'\n:/ruby/2.7.0/gems/openstudio-workflow-2.2.1/lib/openstudio/workflow/jobs/run_reporting_measures.rb:117:in `perform'\n:/ruby/2.7.0/gems/openstudio-workflow-2.2.1/lib/openstudio/workflow/run.rb:287:in `step'\n:/ruby/2.7.0/gems/openstudio-workflow-2.2.1/lib/openstudio/workflow/run.rb:229:in `run'\n:/openstudio_cli.rb:1013:in `execute'\n:/openstudio_cli.rb:803:in `execute'\n:/openstudio_cli.rb:1797:in `<main>'\neval:185:in `eval'\neval:185:in `require_embedded_absolute'\neval:170:in `block in require_embedded'\neval:164:in `each'\neval:164:in `require_embedded'\neval:123:in `require'\neval:3:in `<main>'"
        ]
      }
    }
  ],
  "weather_file": "../../weatherdata/USA_IL_Chicago-OHare.Intl.AP.725300_TMY3.epw"
}