{
  "completed_status": "Success",
  "current_step": 1,
  "eplusout_err": [
    "Program Version,EnergyPlus, Version 9.4.0-998c4b761e, ",
    "   ************* Beginning Zone Sizing Calculations",
    "   ** Warning ** ProcessScheduleInput: Schedule:Day:Interval=\"{129E0120-8F05-4D48-82E2-C0EE7DA6F919}\", Blank Schedule Type Limits Name input -- will not be validated.",
    "   ** Warning ** ProcessScheduleInput: Schedule:Day:Interval=\"{14D652F8-E5D8-4F43-B75D-FA0CE1BFF2A2}\", Blank Schedule Type Limits Name input -- will not be validated.",
    "   ** Warning ** ProcessScheduleInput: Schedule:Day:Interval=\"{15D588D3-6EF7-43B4-8FEA-099C07B5C35E}\", Blank Schedule Type Limits Name input -- will not be validated.",
    "   ** Warning ** ProcessScheduleInput: Schedule:Day:Interval=\"{21D13412-A6DD-4BA6-A6B6-F81502203BEE}\", Blank Schedule Type Limits Name input -- will not be validated.",
    "   ** Warning ** ProcessScheduleInput: Schedule:Day:Interval=\"{38CBEBEB-C366-427C-A62E-DCBEB92C5494}\", Blank Schedule Type Limits Name input -- will not be validated.",
    "   ** Warning ** ProcessScheduleInput: Schedule:Day:Interval=\"{5484B922-586C-4E6C-B3BA-3D73DDE16485}\", Blank Schedule Type Limits Name input -- will not be validated.",
    "   ** Warning ** ProcessScheduleInput: Schedule:Day:Interval=\"{64C9C6DF-9504-4196-8638-ED0B996F2A15}\", Blank Schedule Type Limits Name input -- will not be validated.",
    "   ** Warning ** ProcessScheduleInput: Schedule:Day:Interval=\"{826BD7FF-121D-4F5E-BE01-8D337082CBEC}\", Blank Schedule Type Limits Name input -- will not be validated.",
    "   ** Warning ** ProcessScheduleInput: Schedule:Day:Interval=\"{83AAF634-BDF0-4FE9-9148-79CA0E647912}\", Blank Schedule Type Limits Name input -- will not be validated.",
    "   ** Warning ** ProcessScheduleInput: Schedule:Day:Interval=\"{AF32E337-4977-4B92-A488-AA858597C8F9}\", Blank Schedule Type Limits Name input -- will not be validated.",
    "   ** Warning ** ProcessScheduleInput: Schedule:Day:Interval=\"{B22048B7-1269-4E3F-934F-E98FFA643A0D}\", Blank Schedule Type Limits Name input -- will not be validated.",
    "   ** Warning ** ProcessScheduleInput: Schedule:Day:Interval=\"{B23E61C6-FF40-466F-AA38-DB7A738565E6}\", Blank Schedule Type Limits Name input -- will not be validated.",
    "   ** Warning ** ProcessScheduleInput: Schedule:Day:Interval=\"{C9135721-6BD3-4AA1-88DE-21784BF8E08A}\", Blank Schedule Type Limits Name input -- will not be validated.",
    "   ** Warning ** ProcessScheduleInput: Schedule:Day:Interval=\"{CCC7C5A3-1990-477E-BF16-47F02CE6900E}\", Blank Schedule Type Limits Name input -- will not be validated.",
    "   ** Warning ** ProcessScheduleInput: Schedule:Day:Interval=\"{FBA48132-2648-4E60-91CA-BF0430EF5978}\", Blank Schedule Type Limits Name input -- will not be validated.",
    "   ** Warning ** ProcessScheduleInput: Schedule:Year=\"CORE_BOTTOM TARGET SHW TEMP\", Blank Schedule Type Limits Name input -- will not be validated.",
    "   ** Warning ** ProcessScheduleInput: Schedule:Year=\"CORE_MID TARGET SHW TEMP\", Blank Schedule Type Limits Name input -- will not be validated.",
    "   ** Warning ** ProcessScheduleInput: Schedule:Year=\"CORE_TOP TARGET SHW TEMP\", Blank Schedule Type Limits Name input -- will not be validated.",
    "   ** Warning ** ProcessScheduleInput: Schedule:Year=\"PERIMETER_BOT_ZN_1 TARGET SHW TEMP\", Blank Schedule Type Limits Name input -- will not be validated.",
    "   ** Warning ** ProcessScheduleInput: Schedule:Year=\"PERIMETER_BOT_ZN_2 TARGET SHW TEMP\", Blank Schedule Type Limits Name input -- will not be validated.",
    "   ** Warning ** ProcessScheduleInput: Schedule:Year=\"PERIMETER_BOT_ZN_3 TARGET SHW TEMP\", Blank Schedule Type Limits Name input -- will not be validated.",
    "   ** Warning ** ProcessScheduleInput: Schedule:Year=\"PERIMETER_BOT_ZN_4 TARGET SHW TEMP\", Blank Schedule Type Limits Name input -- will not be validated.",
    "   ** Warning ** ProcessScheduleInput: Schedule:Year=\"PERIMETER_MID_ZN_1 TARGET SHW TEMP\", Blank Schedule Type Limits Name input -- will not be validated.",
    "   ** Warning ** ProcessScheduleInput: Schedule:Year=\"PERIMETER_MID_ZN_2 TARGET SHW TEMP\", Blank Schedule Type Limits Name input -- will not be validated.",
    "   ** Warning ** ProcessScheduleInput: Schedule:Year=\"PERIMETER_MID_ZN_3 TARGET SHW TEMP\", Blank Schedule Type Limits Name input -- will not be validated.",
    "   ** Warning ** ProcessScheduleInput: Schedule:Year=\"PERIMETER_MID_ZN_4 TARGET SHW TEMP\", Blank Schedule Type Limits Name input -- will not be validated.",
    "   ** Warning ** ProcessScheduleInput: Schedule:Year=\"PERIMETER_TOP_ZN_1 TARGET SHW TEMP\", Blank Schedule Type Limits Name input -- will not be validated.",
    "   ** Warning ** ProcessScheduleInput: Schedule:Year=\"PERIMETER_TOP_ZN_2 TARGET SHW TEMP\", Blank Schedule Type Limits Name input -- will not be validated.",
    "   ** Warning ** ProcessScheduleInput: Schedule:Year=\"PERIMETER_TOP_ZN_3 TARGET SHW TEMP\", Blank Schedule Type Limits Name input -- will not be validated.",
    "   ** Warning ** ProcessScheduleInput: Schedule:Year=\"PERIMETER_TOP_ZN_4 TARGET SHW TEMP\", Blank Schedule Type Limits Name input -- will not be validated.",
    "   ** Warning ** ProcessScheduleInput: Schedule:Constant=\"ALWAYS OFF DISCRETE\", Blank Schedule Type Limits Name input -- will not be validated.",
    "   ** Warning ** ProcessScheduleInput: Schedule:Constant=\"ALWAYS ON CONTINUOUS\", Blank Schedule Type Limits Name input -- will not be validated.",
    "   ** Warning ** Weather file location will be used rather than entered (IDF) Location object.",
    "   **   ~~~   ** ..Location object={E4CDE80D-33CA-4A83-AAA1-4CA336A00058}",
    "   **   ~~~   ** ..Weather File Location=Chicago Ohare Intl Ap IL USA TMY3 WMO#=725300",
    "   **   ~~~   ** ..due to location differences, Latitude difference=[8.03] degrees, Longitude difference=[30.48] degrees.",
    "   **   ~~~   ** ..Time Zone difference=[2.0] hour(s), Elevation difference=[572.91] percent, [171.13] meters.",
    "   ** Warning ** GetDaylightingControls: Fraction of Zone controlled by the Daylighting reference points is < 1.0.",
    "   **   ~~~   ** ..discovered in \"Daylighting:Controls\" for Zone=\"PERIMETER_BOT_ZN_1 THERMAL ZONE\", only 0.533 of the zone is controlled.",
    "   ** Warning ** GetDaylightingControls: Fraction of Zone controlled by the Daylighting reference points is < 1.0.",
    "   **   ~~~   ** ..discovered in \"Daylighting:Controls\" for Zone=\"PERIMETER_BOT_ZN_2 THERMAL ZONE\", only 0.548 of the zone is controlled.",
    "   ** Warning ** GetDaylightingControls: Fraction of Zone controlled by the Daylighting reference points is < 1.0.",
    "   **   ~~~   ** ..discovered in \"Daylighting:Controls\" for Zone=\"PERIMETER_BOT_ZN_3 THERMAL ZONE\", only 0.533 of the zone is controlled.",
    "   ** Warning ** GetDaylightingControls: Fraction of Zone controlled by the Daylighting reference points is < 1.0.",
    "   **   ~~~   ** ..discovered in \"Daylighting:Controls\" for Zone=\"PERIMETER_BOT_ZN_4 THERMAL ZONE\", only 0.548 of the zone is controlled.",
    "   ** Warning ** GetDaylightingControls: Fraction of Zone controlled by the Daylighting reference points is < 1.0.",
    "   **   ~~~   ** ..discovered in \"Daylighting:Controls\" for Zone=\"PERIMETER_MID_ZN_1 THERMAL ZONE\", only 0.533 of the zone is controlled.",
    "   ** Warning ** GetDaylightingControls: Fraction of Zone controlled by the Daylighting reference points is < 1.0.",
    "   **   ~~~   ** ..discovered in \"Daylighting:Controls\" for Zone=\"PERIMETER_MID_ZN_2 THERMAL ZONE\", only 0.548 of the zone is controlled.",
    "   ** Warning ** GetDaylightingControls: Fraction of Zone controlled by the Daylighting reference points is < 1.0.",
    "   **   ~~~   ** ..discovered in \"Daylighting:Controls\" for Zone=\"PERIMETER_MID_ZN_3 THERMAL ZONE\", only 0.533 of the zone is controlled.",
    "   ** Warning ** GetDaylightingControls: Fraction of Zone controlled by the Daylighting reference points is < 1.0.",
    "   **   ~~~   ** ..discovered in \"Daylighting:Controls\" for Zone=\"PERIMETER_MID_ZN_4 THERMAL ZONE\", only 0.548 of the zone is controlled.",
    "   ** Warning ** GetSimpleAirModelInputs: ZoneInfiltration:DesignFlowRate=\"CORE_BOTTOM SPACE INFILTRATION DESIGN FLOW RATE 1\", Design Flow Rate Calculation Method specifies Flow per Exterior Surface Area, but Exterior Wall Area = 0.  0 Infiltration will result.",
    "   ** Warning ** GetSimpleAirModelInputs: ZoneInfiltration:DesignFlowRate=\"CORE_MID SPACE INFILTRATION DESIGN FLOW RATE 1\", Design Flow Rate Calculation Method specifies Flow per Exterior Surface Area, but Exterior Wall Area = 0.  0 Infiltration will result.",
    "   ** Warning ** GetSimpleAirModelInputs: ZoneInfiltration:DesignFlowRate=\"CORE_TOP SPACE INFILTRATION DESIGN FLOW RATE 1\", Design Flow Rate Calculation Method specifies Flow per Exterior Surface Area, but Exterior Wall Area = 0.  0 Infiltration will result.",
    "   ************* Beginning System Sizing Calculations",
    "   ** Warning ** Since Zone Minimum Air Flow Input Method = FIXEDFLOWRATE, input for Constant Minimum Air Flow Fraction will be ignored.",
    "   **   ~~~   ** Occurs in AirTerminal:SingleDuct:VAV:Reheat = PERIMETERBOTTOMZN1 TU",
    "   ** Warning ** Since Damper Heating Action = NORMAL, input for Maximum Flow Fraction During Reheat will be ignored.",
    "   **   ~~~   ** Occurs in AirTerminal:SingleDuct:VAV:Reheat = PERIMETERBOTTOMZN1 TU",
    "   ** Warning ** Since Zone Minimum Air Flow Input Method = FIXEDFLOWRATE, input for Constant Minimum Air Flow Fraction will be ignored.",
    "   **   ~~~   ** Occurs in AirTerminal:SingleDuct:VAV:Reheat = PERIMETERBOTTOMZN2 TU",
    "   ** Warning ** Since Damper Heating Action = NORMAL, input for Maximum Flow Fraction During Reheat will be ignored.",
    "   **   ~~~   ** Occurs in AirTerminal:SingleDuct:VAV:Reheat = PERIMETERBOTTOMZN2 TU",
    "   ** Warning ** Since Zone Minimum Air Flow Input Method = FIXEDFLOWRATE, input for Constant Minimum Air Flow Fraction will be ignored.",
    "   **   ~~~   ** Occurs in AirTerminal:SingleDuct:VAV:Reheat = PERIMETERBOTTOMZN3 TU",
    "   ** Warning ** Since Damper Heating Action = NORMAL, input for Maximum Flow Fraction During Reheat will be ignored.",
    "   **   ~~~   ** Occurs in AirTerminal:SingleDuct:VAV:Reheat = PERIMETERBOTTOMZN3 TU",
    "   ** Warning ** Since Zone Minimum Air Flow Input Method = FIXEDFLOWRATE, input for Constant Minimum Air Flow Fraction will be ignored.",
    "   **   ~~~   ** Occurs in AirTerminal:SingleDuct:VAV:Reheat = PERIMETERBOTTOMZN4 TU",
    "   ** Warning ** Since Damper Heating Action = NORMAL, input for Maximum Flow Fraction During Reheat will be ignored.",
    "   **   ~~~   ** Occurs in AirTerminal:SingleDuct:VAV:Reheat = PERIMETERBOTTOMZN4 TU",
    "   ** Warning ** Since Zone Minimum Air Flow Input Method = FIXEDFLOWRATE, input for Constant Minimum Air Flow Fraction will be ignored.",
    "   **   ~~~   ** Occurs in AirTerminal:SingleDuct:VAV:Reheat = PERIMETERMIDZN1 TU",
    "   ** Warning ** Since Damper Heating Action = NORMAL, input for Maximum Flow Fraction During Reheat will be ignored.",
    "   **   ~~~   ** Occurs in AirTerminal:SingleDuct:VAV:Reheat = PERIMETERMIDZN1 TU",
    "   ** Warning ** Since Zone Minimum Air Flow Input Method = FIXEDFLOWRATE, input for Constant Minimum Air Flow Fraction will be ignored.",
    "   **   ~~~   ** Occurs in AirTerminal:SingleDuct:VAV:Reheat = PERIMETERMIDZN2 TU",
    "   ** Warning ** Since Damper Heating Action = NORMAL, input for Maximum Flow Fraction During Reheat will be ignored.",
    "   **   ~~~   ** Occurs in AirTerminal:SingleDuct:VAV:Reheat = PERIMETERMIDZN2 TU",
    "   ** Warning ** Since Zone Minimum Air Flow Input Method = FIXEDFLOWRATE, input for Constant Minimum Air Flow Fraction will be ignored.",
    "   **   ~~~   ** Occurs in AirTerminal:SingleDuct:VAV:Reheat = PERIMETERMIDZN3 TU",
    "   ** Warning ** Since Damper Heating Action = NORMAL, input for Maximum Flow Fraction During Reheat will be ignored.",
    "   **   ~~~   ** Occurs in AirTerminal:SingleDuct:VAV:Reheat = PERIMETERMIDZN3 TU",
    "   ** Warning ** Since Zone Minimum Air Flow Input Method = FIXEDFLOWRATE, input for Constant Minimum Air Flow Fraction will be ignored.",
    "   **   ~~~   ** Occurs in AirTerminal:SingleDuct:VAV:Reheat = PERIMETERMIDZN4 TU",
    "   ** Warning ** Since Damper Heating Action = NORMAL, input for Maximum Flow Fraction During Reheat will be ignored.",
    "   **   ~~~   ** Occurs in AirTerminal:SingleDuct:VAV:Reheat = PERIMETERMIDZN4 TU",
    "   ** Warning ** Since Zone Minimum Air Flow Input Method = FIXEDFLOWRATE, input for Constant Minimum Air Flow Fraction will be ignored.",
    "   **   ~~~   ** Occurs in AirTerminal:SingleDuct:VAV:Reheat = BASEVAVBOX TRMLUNIT",
    "   ** Warning ** Since Damper Heating Action = REVERSE, input for Maximum Flow Fraction During Reheat will be ignored.",
    "   **   ~~~   ** Occurs in AirTerminal:SingleDuct:VAV:Reheat = BASEVAVBOX TRMLUNIT",
    "   ** Warning ** Since Zone Minimum Air Flow Input Method = FIXEDFLOWRATE, input for Constant Minimum Air Flow Fraction will be ignored.",
    "   **   ~~~   ** Occurs in AirTerminal:SingleDuct:VAV:Reheat = BASEVAVBOX TRMLUNIT-2",
    "   ** Warning ** Since Damper Heating Action = REVERSE, input for Maximum Flow Fraction During Reheat will be ignored.",
    "   **   ~~~   ** Occurs in AirTerminal:SingleDuct:VAV:Reheat = BASEVAVBOX TRMLUNIT-2",
    "   ** Warning ** Since Zone Minimum Air Flow Input Method = FIXEDFLOWRATE, input for Constant Minimum Air Flow Fraction will be ignored.",
    "   **   ~~~   ** Occurs in AirTerminal:SingleDuct:VAV:Reheat = BASEVAVBOX TRMLUNIT-3",
    "   ** Warning ** Since Damper Heating Action = REVERSE, input for Maximum Flow Fraction During Reheat will be ignored.",
    "   **   ~~~   ** Occurs in AirTerminal:SingleDuct:VAV:Reheat = BASEVAVBOX TRMLUNIT-3",
    "   ** Warning ** Since Zone Minimum Air Flow Input Method = FIXEDFLOWRATE, input for Constant Minimum Air Flow Fraction will be ignored.",
    "   **   ~~~   ** Occurs in AirTerminal:SingleDuct:VAV:Reheat = BASEVAVBOX TRMLUNIT-4",
    "   ** Warning ** Since Damper Heating Action = REVERSE, input for Maximum Flow Fraction During Reheat will be ignored.",
    "   **   ~~~   ** Occurs in AirTerminal:SingleDuct:VAV:Reheat = BASEVAVBOX TRMLUNIT-4",
    "   ************* Beginning Plant Sizing Calculations",
    "   ** Warning ** GetOAControllerInputs: Controller:MechanicalVentilation=\"CORE_BOTTOMZNOACONTROL MECH VENT CONTROLLER",
    "   **   ~~~   ** Cannot locate a matching DesignSpecification:ZoneAirDistribution object for Zone=\"CORE_BOTTOM THERMAL ZONE\".",
    "   **   ~~~   ** Using default zone air distribution effectiveness of 1.0 for heating and cooling.",
    "   ** Warning ** GetOAControllerInputs: Controller:MechanicalVentilation=\"CORE_MIDZNOACONTROL MECH VENT CONTROLLER",
    "   **   ~~~   ** Cannot locate a matching DesignSpecification:ZoneAirDistribution object for Zone=\"CORE_MID THERMAL ZONE\".",
    "   **   ~~~   ** Using default zone air distribution effectiveness of 1.0 for heating and cooling.",
    "   ** Warning ** GetOAControllerInputs: Controller:MechanicalVentilation=\"CORE_TOPZNOACONTROL MECH VENT CONTROLLER",
    "   **   ~~~   ** Cannot locate a matching DesignSpecification:ZoneAirDistribution object for Zone=\"CORE_TOP THERMAL ZONE\".",
    "   **   ~~~   ** Using default zone air distribution effectiveness of 1.0 for heating and cooling.",
    "   ** Warning ** GetOAControllerInputs: Controller:MechanicalVentilation=\"BOTTOMVAV ECONOMIZER MECH VENT CONTROLLER",
    "   **   ~~~   ** Cannot locate a matching DesignSpecification:ZoneAirDistribution object for Zone=\"PERIMETER_BOT_ZN_1 THERMAL ZONE\".",
    "   **   ~~~   ** Using default zone air distribution effectiveness of 1.0 for heating and cooling.",
    "   ** Warning ** GetOAControllerInputs: Controller:MechanicalVentilation=\"BOTTOMVAV ECONOMIZER MECH VENT CONTROLLER",
    "   **   ~~~   ** Cannot locate a matching DesignSpecification:ZoneAirDistribution object for Zone=\"PERIMETER_BOT_ZN_2 THERMAL ZONE\".",
    "   **   ~~~   ** Using default zone air distribution effectiveness of 1.0 for heating and cooling.",
    "   ** Warning ** GetOAControllerInputs: Controller:MechanicalVentilation=\"BOTTOMVAV ECONOMIZER MECH VENT CONTROLLER",
    "   **   ~~~   ** Cannot locate a matching DesignSpecification:ZoneAirDistribution object for Zone=\"PERIMETER_BOT_ZN_3 THERMAL ZONE\".",
    "   **   ~~~   ** Using default zone air distribution effectiveness of 1.0 for heating and cooling.",
    "   ** Warning ** GetOAControllerInputs: Controller:MechanicalVentilation=\"BOTTOMVAV ECONOMIZER MECH VENT CONTROLLER",
    "   **   ~~~   ** Cannot locate a matching DesignSpecification:ZoneAirDistribution object for Zone=\"PERIMETER_BOT_ZN_4 THERMAL ZONE\".",
    "   **   ~~~   ** Using default zone air distribution effectiveness of 1.0 for heating and cooling.",
    "   ** Warning ** GetOAControllerInputs: Controller:MechanicalVentilation=\"MIDVAV OACTRL MECH VENT CONTROLLER",
    "   **   ~~~   ** Cannot locate a matching DesignSpecification:ZoneAirDistribution object for Zone=\"PERIMETER_MID_ZN_1 THERMAL ZONE\".",
    "   **   ~~~   ** Using default zone air distribution effectiveness of 1.0 for heating and cooling.",
    "   ** Warning ** GetOAControllerInputs: Controller:MechanicalVentilation=\"MIDVAV OACTRL MECH VENT CONTROLLER",
    "   **   ~~~   ** Cannot locate a matching DesignSpecification:ZoneAirDistribution object for Zone=\"PERIMETER_MID_ZN_2 THERMAL ZONE\".",
    "   **   ~~~   ** Using default zone air distribution effectiveness of 1.0 for heating and cooling.",
    "   ** Warning ** GetOAControllerInputs: Controller:MechanicalVentilation=\"MIDVAV OACTRL MECH VENT CONTROLLER",
    "   **   ~~~   ** Cannot locate a matching DesignSpecification:ZoneAirDistribution object for Zone=\"PERIMETER_MID_ZN_3 THERMAL ZONE\".",
    "   **   ~~~   ** Using default zone air distribution effectiveness of 1.0 for heating and cooling.",
    "   ** Warning ** GetOAControllerInputs: Controller:MechanicalVentilation=\"MIDVAV OACTRL MECH VENT CONTROLLER",
    "   **   ~~~   ** Cannot locate a matching DesignSpecification:ZoneAirDistribution object for Zone=\"PERIMETER_MID_ZN_4 THERMAL ZONE\".",
    "   **   ~~~   ** Using default zone air distribution effectiveness of 1.0 for heating and cooling.",
    "   ** Warning ** GetOAControllerInputs: Controller:MechanicalVentilation=\"BASESYS5 OACTRL MECH VENT CONTROLLER",
    "   **   ~~~   ** Cannot locate a matching DesignSpecification:ZoneAirDistribution object for Zone=\"PERIMETER_TOP_ZN_1 THERMAL ZONE\".",
    "   **   ~~~   ** Using default zone air distribution effectiveness of 1.0 for heating and cooling.",
    "   ** Warning ** GetOAControllerInputs: Controller:MechanicalVentilation=\"BASESYS5 OACTRL MECH VENT CONTROLLER",
    "   **   ~~~   ** Cannot locate a matching DesignSpecification:ZoneAirDistribution object for Zone=\"PERIMETER_TOP_ZN_2 THERMAL ZONE\".",
    "   **   ~~~   ** Using default zone air distribution effectiveness of 1.0 for heating and cooling.",
    "   ** Warning ** GetOAControllerInputs: Controller:MechanicalVentilation=\"BASESYS5 OACTRL MECH VENT CONTROLLER",
    "   **   ~~~   ** Cannot locate a matching DesignSpecification:ZoneAirDistribution object for Zone=\"PERIMETER_TOP_ZN_3 THERMAL ZONE\".",
    "   **   ~~~   ** Using default zone air distribution effectiveness of 1.0 for heating and cooling.",
    "   ** Warning ** GetOAControllerInputs: Controller:MechanicalVentilation=\"BASESYS5 OACTRL MECH VENT CONTROLLER",
    "   **   ~~~   ** Cannot locate a matching DesignSpecification:ZoneAirDistribution object for Zone=\"PERIMETER_TOP_ZN_4 THERMAL ZONE\".",
    "   **   ~~~   ** Using default zone air distribution effectiveness of 1.0 for heating and cooling.",
    "   ** Warning ** The design coil load is zero for Coil:Heating:Water BASESYS5 COILHTG",
    "   **   ~~~   ** The autosize value for maximum water flow rate is zero",
    "   **   ~~~   ** To change this, input a value for UA, change the heating design day, or raise the",
    "   **   ~~~   **   system heating design supply air temperature. Also check to make sure the Preheat",
    "   **   ~~~   **   Design Temperature is not the same as the Central Heating Design Supply Air Temperature. ",
    "   ** Warning ** The Standard Ratings is calculated for Coil:Cooling:DX:SingleSpeed = BOTTOM VAV COILCOOLING but not at the AHRI test condition due to curve out of bound.",
    "   **   ~~~   **  Review the Standard Ratings calculations in the Engineering Reference for this coil type. Also, use Output:Diagnostics, DisplayExtraWarnings for further guidance.",
    "   ** Warning ** The Standard Ratings is calculated for Coil:Cooling:DX:SingleSpeed = CORE_BOTTOMZNCOOLINGCOIL but not at the AHRI test condition due to curve out of bound.",
    "   **   ~~~   **  Review the Standard Ratings calculations in the Engineering Reference for this coil type. Also, use Output:Diagnostics, DisplayExtraWarnings for further guidance.",
    "   ** Warning ** The Standard Ratings is calculated for Coil:Cooling:DX:SingleSpeed = CORE_MIDZNCOOLINGCOIL but not at the AHRI test condition due to curve out of bound.",
    "   **   ~~~   **  Review the Standard Ratings calculations in the Engineering Reference for this coil type. Also, use Output:Diagnostics, DisplayExtraWarnings for further guidance.",
    "   ** Warning ** The Standard Ratings is calculated for Coil:Cooling:DX:SingleSpeed = CORE_TOPZNCOOLINGCOIL but not at the AHRI test condition due to curve out of bound.",
    "   **   ~~~   **  Review the Standard Ratings calculations in the Engineering Reference for this coil type. Also, use Output:Diagnostics, DisplayExtraWarnings for further guidance.",
    "   ** Warning ** The Standard Ratings is calculated for Coil:Cooling:DX:SingleSpeed = MID VAV COILCOOLING but not at the AHRI test condition due to curve out of bound.",
    "   **   ~~~   **  Review the Standard Ratings calculations in the Engineering Reference for this coil type. Also, use Output:Diagnostics, DisplayExtraWarnings for further guidance.",
    "   ** Warning ** Check input. Pump nominal power or motor efficiency is set to 0, for pump={8C375CA7-77F3-4B31-BACA-55F5CB98DEA5}",
    "   ** Warning ** Output:Meter: invalid Key Name=\"DISTRICTCOOLING:FACILITY\" - not found.",
    "   ** Warning ** Output:Meter: invalid Key Name=\"DISTRICTHEATING:FACILITY\" - not found.",
    "   ** Warning ** Output:Meter:MeterFileOnly: invalid Key Name=\"COAL:FACILITY\" - not found.",
    "   ** Warning ** Output:Meter:MeterFileOnly: invalid Key Name=\"COGENERATION:COAL\" - not found.",
    "   ** Warning ** Output:Meter:MeterFileOnly: invalid Key Name=\"COGENERATION:DISTRICTCOOLING\" - not found.",
    "   ** Warning ** Output:Meter:MeterFileOnly: invalid Key Name=\"COGENERATION:DISTRICTHEATING\" - not found.",
    "   ** Warning ** Output:Meter:MeterFileOnly: invalid Key Name=\"COGENERATION:ELECTRICITY\" - not found.",
    "   ** Warning ** Output:Meter:MeterFileOnly: invalid Key Name=\"COGENERATION:NATURALGAS\" - not found.",
    "   ** Warning ** Output:Meter:MeterFileOnly: invalid Key Name=\"COOLING:COAL\" - not found.",
    "   ** Warning ** Output:Meter:MeterFileOnly: invalid Key Name=\"COOLING:DISTRICTCOOLING\" - not found.",
    "   ** Warning ** Output:Meter:MeterFileOnly: invalid Key Name=\"COOLING:DISTRICTHEATING\" - not found.",
    "   ** Warning ** Output:Meter:MeterFileOnly: invalid Key Name=\"COOLING:NATURALGAS\" - not found.",
    "   ** Warning ** Output:Meter:MeterFileOnly: invalid Key Name=\"DISTRICTCOOLING:FACILITY\" - not found.",
    "   ** Warning ** Output:Meter:MeterFileOnly: invalid Key Name=\"DISTRICTHEATING:FACILITY\" - not found.",
    "   ** Warning ** Output:Meter:MeterFileOnly: invalid Key Name=\"EXTERIOREQUIPMENT:COAL\" - not found.",
    "   ** Warning ** Output:Meter:MeterFileOnly: invalid Key Name=\"EXTERIOREQUIPMENT:DISTRICTCOOLING\" - not found.",
    "   ** Warning ** Output:Meter:MeterFileOnly: invalid Key Name=\"EXTERIOREQUIPMENT:DISTRICTHEATING\" - not found.",
    "   ** Warning ** Output:Meter:MeterFileOnly: invalid Key Name=\"EXTERIOREQUIPMENT:ELECTRICITY\" - not found.",
    "   ** Warning ** Output:Meter:MeterFileOnly: invalid Key Name=\"EXTERIOREQUIPMENT:NATURALGAS\" - not found.",
    "   ** Warning ** Output:Meter:MeterFileOnly: invalid Key Name=\"EXTERIORLIGHTS:COAL\" - not found.",
    "   ** Warning ** Output:Meter:MeterFileOnly: invalid Key Name=\"EXTERIORLIGHTS:DISTRICTCOOLING\" - not found.",
    "   ** Warning ** Output:Meter:MeterFileOnly: invalid Key Name=\"EXTERIORLIGHTS:DISTRICTHEATING\" - not found.",
    "   ** Warning ** Output:Meter:MeterFileOnly: invalid Key Name=\"EXTERIORLIGHTS:ELECTRICITY\" - not found.",
    "   ** Warning ** Output:Meter:MeterFileOnly: invalid Key Name=\"EXTERIORLIGHTS:NATURALGAS\" - not found.",
    "   ** Warning ** Output:Meter:MeterFileOnly: invalid Key Name=\"FANS:COAL\" - not found.",
    "   ** Warning ** Output:Meter:MeterFileOnly: invalid Key Name=\"FANS:DISTRICTCOOLING\" - not found.",
    "   ** Warning ** Output:Meter:MeterFileOnly: invalid Key Name=\"FANS:DISTRICTHEATING\" - not found.",
    "   ** Warning ** Output:Meter:MeterFileOnly: invalid Key Name=\"FANS:NATURALGAS\" - not found.",
    "   ** Warning ** Output:Meter:MeterFileOnly: invalid Key Name=\"HEATING:COAL\" - not found.",
    "   ** Warning ** Output:Meter:MeterFileOnly: invalid Key Name=\"HEATING:DISTRICTCOOLING\" - not found.",
    "   ** Warning ** Output:Meter:MeterFileOnly: invalid Key Name=\"HEATING:DISTRICTHEATING\" - not found.",
    "   ** Warning ** Output:Meter:MeterFileOnly: invalid Key Name=\"HEATRECOVERY:COAL\" - not found.",
    "   ** Warning ** Output:Meter:MeterFileOnly: invalid Key Name=\"HEATRECOVERY:DISTRICTCOOLING\" - not found.",
    "   ** Warning ** Output:Meter:MeterFileOnly: invalid Key Name=\"HEATRECOVERY:DISTRICTHEATING\" - not found.",
    "   ** Warning ** Output:Meter:MeterFileOnly: invalid Key Name=\"HEATRECOVERY:ELECTRICITY\" - not found.",
    "   ** Warning ** Output:Meter:MeterFileOnly: invalid Key Name=\"HEATRECOVERY:NATURALGAS\" - not found.",
    "   ** Warning ** Output:Meter:MeterFileOnly: invalid Key Name=\"HEATREJECTION:COAL\" - not found.",
    "   ** Warning ** Output:Meter:MeterFileOnly: invalid Key Name=\"HEATREJECTION:DISTRICTCOOLING\" - not found.",
    "   ** Warning ** Output:Meter:MeterFileOnly: invalid Key Name=\"HEATREJECTION:DISTRICTHEATING\" - not found.",
    "   ** Warning ** Output:Meter:MeterFileOnly: invalid Key Name=\"HEATREJECTION:ELECTRICITY\" - not found.",
    "   ** Warning ** Output:Meter:MeterFileOnly: invalid Key Name=\"HEATREJECTION:NATURALGAS\" - not found.",
    "   ** Warning ** Output:Meter:MeterFileOnly: invalid Key Name=\"HUMIDIFIER:COAL\" - not found.",
    "   ** Warning ** Output:Meter:MeterFileOnly: invalid Key Name=\"HUMIDIFIER:DISTRICTCOOLING\" - not found.",
    "   ** Warning ** Output:Meter:MeterFileOnly: invalid Key Name=\"HUMIDIFIER:DISTRICTHEATING\" - not found.",
    "   ** Warning ** Output:Meter:MeterFileOnly: invalid Key Name=\"HUMIDIFIER:ELECTRICITY\" - not found.",
    "   ** Warning ** Output:Meter:MeterFileOnly: invalid Key Name=\"HUMIDIFIER:NATURALGAS\" - not found.",
    "   ** Warning ** Output:Meter:MeterFileOnly: invalid Key Name=\"INTERIOREQUIPMENT:COAL\" - not found.",
    "   ** Warning ** Output:Meter:MeterFileOnly: invalid Key Name=\"INTERIOREQUIPMENT:DISTRICTCOOLING\" - not found.",
    "   ** Warning ** Output:Meter:MeterFileOnly: invalid Key Name=\"INTERIOREQUIPMENT:DISTRICTHEATING\" - not found.",
    "   ** Warning ** Output:Meter:MeterFileOnly: invalid Key Name=\"INTERIOREQUIPMENT:NATURALGAS\" - not found.",
    "   ** Warning ** Output:Meter:MeterFileOnly: invalid Key Name=\"INTERIORLIGHTS:COAL\" - not found.",
    "   ** Warning ** Output:Meter:MeterFileOnly: invalid Key Name=\"INTERIORLIGHTS:DISTRICTCOOLING\" - not found.",
    "   ** Warning ** Output:Meter:MeterFileOnly: invalid Key Name=\"INTERIORLIGHTS:DISTRICTHEATING\" - not found.",
    "   ** Warning ** Output:Meter:MeterFileOnly: invalid Key Name=\"INTERIORLIGHTS:NATURALGAS\" - not found.",
    "   ** Warning ** Output:Meter:MeterFileOnly: invalid Key Name=\"INTERNAL TRANSPORT:INTERIOREQUIPMENT:ELECTRICITY\" - not found.",
    "   ** Warning ** Output:Meter:MeterFileOnly: invalid Key Name=\"NONCOMPLIANCELTG:INTERIORLIGHTS:ELECTRICITY\" - not found.",
    "   ** Warning ** Output:Meter:MeterFileOnly: invalid Key Name=\"NONREG LTG:EXTERIORLIGHTS:ELECTRICITY\" - not found.",
    "   ** Warning ** Output:Meter:MeterFileOnly: invalid Key Name=\"PROCESS:EXTERIOREQUIPMENT:ELECTRICITY\" - not found.",
    "   ** Warning ** Output:Meter:MeterFileOnly: invalid Key Name=\"PROCESS:EXTERIOREQUIPMENT:NATURALGAS\" - not found.",
    "   ** Warning ** Output:Meter:MeterFileOnly: invalid Key Name=\"PROCESS:INTERIOREQUIPMENT:ELECTRICITY\" - not found.",
    "   ** Warning ** Output:Meter:MeterFileOnly: invalid Key Name=\"PROCESS:INTERIOREQUIPMENT:NATURALGAS\" - not found.",
    "   ** Warning ** Output:Meter:MeterFileOnly: invalid Key Name=\"PUMPS:COAL\" - not found.",
    "   ** Warning ** Output:Meter:MeterFileOnly: invalid Key Name=\"PUMPS:DISTRICTCOOLING\" - not found.",
    "   ** Warning ** Output:Meter:MeterFileOnly: invalid Key Name=\"PUMPS:DISTRICTHEATING\" - not found.",
    "   ** Warning ** Output:Meter:MeterFileOnly: invalid Key Name=\"PUMPS:NATURALGAS\" - not found.",
    "   ** Warning ** Output:Meter:MeterFileOnly: invalid Key Name=\"RECEPTACLE:EXTERIOREQUIPMENT:ELECTRICITY\" - not found.",
    "   ** Warning ** Output:Meter:MeterFileOnly: invalid Key Name=\"RECEPTACLE:EXTERIOREQUIPMENT:NATURALGAS\" - not found.",
    "   ** Warning ** Output:Meter:MeterFileOnly: invalid Key Name=\"RECEPTACLE:INTERIOREQUIPMENT:NATURALGAS\" - not found.",
    "   ** Warning ** Output:Meter:MeterFileOnly: invalid Key Name=\"REFRIG:EXTERIOREQUIPMENT:ELECTRICITY\" - not found.",
    "   ** Warning ** Output:Meter:MeterFileOnly: invalid Key Name=\"REFRIG:INTERIOREQUIPMENT:ELECTRICITY\" - not found.",
    "   ** Warning ** Output:Meter:MeterFileOnly: invalid Key Name=\"REFRIGERATION:COAL\" - not found.",
    "   ** Warning ** Output:Meter:MeterFileOnly: invalid Key Name=\"REFRIGERATION:DISTRICTCOOLING\" - not found.",
    "   ** Warning ** Output:Meter:MeterFileOnly: invalid Key Name=\"REFRIGERATION:DISTRICTHEATING\" - not found.",
    "   ** Warning ** Output:Meter:MeterFileOnly: invalid Key Name=\"REFRIGERATION:ELECTRICITY\" - not found.",
    "   ** Warning ** Output:Meter:MeterFileOnly: invalid Key Name=\"REFRIGERATION:NATURALGAS\" - not found.",
    "   ** Warning ** Output:Meter:MeterFileOnly: invalid Key Name=\"REG LTG:EXTERIORLIGHTS:ELECTRICITY\" - not found.",
    "   ** Warning ** Output:Meter:MeterFileOnly: invalid Key Name=\"WATERSYSTEMS:COAL\" - not found.",
    "   ** Warning ** Output:Meter:MeterFileOnly: invalid Key Name=\"WATERSYSTEMS:DISTRICTCOOLING\" - not found.",
    "   ** Warning ** Output:Meter:MeterFileOnly: invalid Key Name=\"WATERSYSTEMS:DISTRICTHEATING\" - not found.",
    "   ** Warning ** Output:Meter:MeterFileOnly: invalid Key Name=\"WATERSYSTEMS:ELECTRICITY\" - not found.",
    "   ** Warning ** Output:Meter:MeterFileOnly requested for \"Electricity:Facility\" (TimeStep), already on \"Output:Meter\". Will report to both eplusout.eso and eplusout.mtr",
    "   ************* Testing Individual Branch Integrity",
    "   ************* All Branches passed integrity testing",
    "   ************* Testing Individual Supply Air Path Integrity",
    "   ************* All Supply Air Paths passed integrity testing",
    "   ************* Testing Individual Return Air Path Integrity",
    "   ************* All Return Air Paths passed integrity testing",
    "   ************* No node connection errors were found.",
    "   ************* Beginning Simulation",
    "   ** Severe  ** CheckWarmupConvergence: Loads Initialization, Zone=\"PERIMETER_MID_ZN_1 THERMAL ZONE\" did not converge after 50 warmup days.",
    "   **   ~~~   ** See Warmup Convergence Information in .eio file for details.",
    "   **   ~~~   ** ...Environment(RunPeriod)=\"LOS-ANGELES-INTL_722950_CZ2010\"",
    "   **   ~~~   ** ..Max Temp Comparison = 1.85E-002 vs Temperature Convergence Tolerance=0.40 - Pass Convergence",
    "   **   ~~~   ** ..Min Temp Comparison = 1.57E-003 vs Temperature Convergence Tolerance=0.40 - Pass Convergence",
    "   **   ~~~   ** ..Max Heat Load Comparison = 0.3451 vs Loads Convergence Tolerance=4.00E-002 - Fail Convergence",
    "   **   ~~~   ** ..Max Cool Load Comparison = 3.9012E-003 vs Loads Convergence Tolerance=4.00E-002 - Pass Convergence",
    "   ** Severe  ** CheckWarmupConvergence: Loads Initialization, Zone=\"PERIMETER_MID_ZN_2 THERMAL ZONE\" did not converge after 50 warmup days.",
    "   **   ~~~   ** ...Environment(RunPeriod)=\"LOS-ANGELES-INTL_722950_CZ2010\"",
    "   **   ~~~   ** ..Max Temp Comparison = 1.88E-002 vs Temperature Convergence Tolerance=0.40 - Pass Convergence",
    "   **   ~~~   ** ..Min Temp Comparison = 6.07E-003 vs Temperature Convergence Tolerance=0.40 - Pass Convergence",
    "   **   ~~~   ** ..Max Heat Load Comparison = 0.5611 vs Loads Convergence Tolerance=4.00E-002 - Fail Convergence",
    "   **   ~~~   ** ..Max Cool Load Comparison = 7.9115E-003 vs Loads Convergence Tolerance=4.00E-002 - Pass Convergence",
    "   ** Severe  ** CheckWarmupConvergence: Loads Initialization, Zone=\"PERIMETER_MID_ZN_3 THERMAL ZONE\" did not converge after 50 warmup days.",
    "   **   ~~~   ** ...Environment(RunPeriod)=\"LOS-ANGELES-INTL_722950_CZ2010\"",
    "   **   ~~~   ** ..Max Temp Comparison = 2.11E-002 vs Temperature Convergence Tolerance=0.40 - Pass Convergence",
    "   **   ~~~   ** ..Min Temp Comparison = 1.24E-002 vs Temperature Convergence Tolerance=0.40 - Pass Convergence",
    "   **   ~~~   ** ..Max Heat Load Comparison = 0.5056 vs Loads Convergence Tolerance=4.00E-002 - Fail Convergence",
    "   **   ~~~   ** ..Max Cool Load Comparison = 3.1886E-002 vs Loads Convergence Tolerance=4.00E-002 - Pass Convergence",
    "   ** Severe  ** CheckWarmupConvergence: Loads Initialization, Zone=\"PERIMETER_MID_ZN_4 THERMAL ZONE\" did not converge after 50 warmup days.",
    "   **   ~~~   ** ...Environment(RunPeriod)=\"LOS-ANGELES-INTL_722950_CZ2010\"",
    "   **   ~~~   ** ..Max Temp Comparison = 1.97E-002 vs Temperature Convergence Tolerance=0.40 - Pass Convergence",
    "   **   ~~~   ** ..Min Temp Comparison = 5.58E-003 vs Temperature Convergence Tolerance=0.40 - Pass Convergence",
    "   **   ~~~   ** ..Max Heat Load Comparison = 0.5721 vs Loads Convergence Tolerance=4.00E-002 - Fail Convergence",
    "   **   ~~~   ** ..Max Cool Load Comparison = 1.7347E-002 vs Loads Convergence Tolerance=4.00E-002 - Pass Convergence",
    "   ** Severe  ** CheckWarmupConvergence: Loads Initialization, Zone=\"PERIMETER_TOP_ZN_4 THERMAL ZONE\" did not converge after 50 warmup days.",
    "   **   ~~~   ** ...Environment(RunPeriod)=\"LOS-ANGELES-INTL_722950_CZ2010\"",
    "   **   ~~~   ** ..Max Temp Comparison = 2.18E-003 vs Temperature Convergence Tolerance=0.40 - Pass Convergence",
    "   **   ~~~   ** ..Min Temp Comparison = 6.91E-003 vs Temperature Convergence Tolerance=0.40 - Pass Convergence",
    "   **   ~~~   ** ..Max Heat Load Comparison = 5.1417E-003 vs Loads Convergence Tolerance=4.00E-002 - Pass Convergence",
    "   **   ~~~   ** ..Max Cool Load Comparison = 4.6674E-002 vs Loads Convergence Tolerance=4.00E-002 - Fail Convergence",
    "   ** Warning ** Processing Monthly Tabular Reports: Variable names not valid for this simulation",
    "   **   ~~~   ** ...use Output:Diagnostics,DisplayExtraWarnings; to show more details on individual variables.",
    "   ** Warning ** SimHVAC: Maximum iterations (20) exceeded for all HVAC loops, at LOS-ANGELES-INTL_722950_CZ2010, 01/01 20:23 - 20:30",
    "   **   ~~~   ** The solution for one or more plant systems did not appear to converge",
    "   **   ~~~   ** ...use Output:Diagnostics,DisplayExtraWarnings; to show more details on each max iteration exceeded.",
    "   ** Warning ** SimHVAC: Maximum iterations (20) exceeded for all HVAC loops, at LOS-ANGELES-INTL_722950_CZ2010, 01/01 21:08 - 21:15",
    "   **   ~~~   ** The solution for one or more plant systems did not appear to converge",
    "   ** Warning ** SimHVAC: Maximum iterations (20) exceeded for all HVAC loops, at LOS-ANGELES-INTL_722950_CZ2010, 01/01 23:20 - 23:25",
    "   **   ~~~   ** The solution for one or more plant systems did not appear to converge",
    "   ** Warning ** SimHVAC: Maximum iterations (20) exceeded for all HVAC loops, at LOS-ANGELES-INTL_722950_CZ2010, 01/02 00:05 - 00:10",
    "   **   ~~~   ** The solution for one or more plant systems did not appear to converge",
    "   ** Warning ** SimHVAC: Maximum iterations (20) exceeded for all HVAC loops, at LOS-ANGELES-INTL_722950_CZ2010, 01/02 00:45 - 01:00",
    "   **   ~~~   ** The solution for one or more plant systems did not appear to converge",
    "   ** Warning ** SimHVAC: Maximum iterations (20) exceeded for all HVAC loops, at LOS-ANGELES-INTL_722950_CZ2010, 01/02 05:05 - 05:06",
    "   **   ~~~   ** The solution for one or more plant systems did not appear to converge",
    "   ** Warning ** SimHVAC: Maximum iterations (20) exceeded for all HVAC loops, at LOS-ANGELES-INTL_722950_CZ2010, 01/02 05:07 - 05:08",
    "   **   ~~~   ** The solution for one or more plant systems did not appear to converge",
    "   ** Warning ** SimHVAC: Maximum iterations (20) exceeded for all HVAC loops, at LOS-ANGELES-INTL_722950_CZ2010, 01/02 05:17 - 05:19",
    "   **   ~~~   ** The solution for one or more plant systems did not appear to converge",
    "   ** Warning ** SimHVAC: Maximum iterations (20) exceeded for all HVAC loops, at LOS-ANGELES-INTL_722950_CZ2010, 01/03 08:30 - 08:45",
    "   **   ~~~   ** The solution for one or more plant systems did not appear to converge",
    "   ** Warning ** SimHVAC: Maximum iterations (20) exceeded for all HVAC loops, at LOS-ANGELES-INTL_722950_CZ2010, 01/03 08:45 - 09:00",
    "   **   ~~~   ** The solution for one or more plant systems did not appear to converge",
    "   ** Warning ** SimHVAC: Maximum iterations (20) exceeded for all HVAC loops, at LOS-ANGELES-INTL_722950_CZ2010, 01/04 19:35 - 19:40",
    "   **   ~~~   ** The solution for one or more plant systems did not appear to converge",
    "   ** Warning ** SimHVAC: Maximum iterations (20) exceeded for all HVAC loops, at LOS-ANGELES-INTL_722950_CZ2010, 01/05 07:30 - 07:45",
    "   **   ~~~   ** The solution for one or more plant systems did not appear to converge",
    "   ** Warning ** SimHVAC: Maximum iterations (20) exceeded for all HVAC loops, at LOS-ANGELES-INTL_722950_CZ2010, 01/05 07:35 - 07:40",
    "   **   ~~~   ** The solution for one or more plant systems did not appear to converge",
    "   ** Warning ** SimHVAC: Maximum iterations (20) exceeded for all HVAC loops, at LOS-ANGELES-INTL_722950_CZ2010, 01/05 07:45 - 07:52",
    "   **   ~~~   ** The solution for one or more plant systems did not appear to converge",
    "   ** Warning ** CalcDoe2DXCoil: Coil:Cooling:DX:SingleSpeed=\"BOTTOM VAV COILCOOLING\" - Air volume flow rate per watt of rated total cooling capacity is out of range at 1.881E-005 m3/s/W.",
    "   **   ~~~   **  Environment=LOS-ANGELES-INTL_722950_CZ2010, at Simulation time=03/10 10:45 - 11:00",
    "   **   ~~~   ** Expected range for VolumeFlowPerRatedTotalCapacity=[2.684E-005--6.713E-005]",
    "   **   ~~~   ** Possible causes include inconsistent air flow rates in system components,",
    "   **   ~~~   ** or variable air volume [VAV] system using incorrect coil type.",
    "   ** Warning ** CalcDoe2DXCoil: Coil:Cooling:DX:SingleSpeed=\"MID VAV COILCOOLING\" - Air volume flow rate per watt of rated total cooling capacity is out of range at 2.508E-005 m3/s/W.",
    "   **   ~~~   **  Environment=LOS-ANGELES-INTL_722950_CZ2010, at Simulation time=03/10 10:45 - 11:00",
    "   **   ~~~   ** Expected range for VolumeFlowPerRatedTotalCapacity=[2.684E-005--6.713E-005]",
    "   **   ~~~   ** Possible causes include inconsistent air flow rates in system components,",
    "   **   ~~~   ** or variable air volume [VAV] system using incorrect coil type.",
    "   ** Warning ** CalcDoe2DXCoil: Coil:Cooling:DX:SingleSpeed \"BOTTOM VAV COILCOOLING\" - Full load outlet air dry-bulb temperature < 2C. This indicates the possibility of coil frost/freeze. Outlet temperature = -16.10 C.",
    "   **   ~~~   **  ...Occurrence info = LOS-ANGELES-INTL_722950_CZ2010, 03/10 10:45 - 10:50",
    "   **   ~~~   ** ... Possible reasons for low outlet air dry-bulb temperatures are: This DX coil",
    "   **   ~~~   **    1) may have a low inlet air dry-bulb temperature. Inlet air temperature = 16.013 C.",
    "   **   ~~~   **    2) may have a low air flow rate per watt of cooling capacity. Check inputs.",
    "   **   ~~~   **    3) is used as part of a HX assisted cooling coil which uses a high sensible effectiveness. Check inputs.",
    "   ** Warning ** CalcDoe2DXCoil: Coil:Cooling:DX:SingleSpeed \"MID VAV COILCOOLING\" - Full load outlet air dry-bulb temperature < 2C. This indicates the possibility of coil frost/freeze. Outlet temperature = -4.36 C.",
    "   **   ~~~   **  ...Occurrence info = LOS-ANGELES-INTL_722950_CZ2010, 03/10 10:45 - 10:50",
    "   **   ~~~   ** ... Possible reasons for low outlet air dry-bulb temperatures are: This DX coil",
    "   **   ~~~   **    1) may have a low inlet air dry-bulb temperature. Inlet air temperature = 22.060 C.",
    "   **   ~~~   **    2) may have a low air flow rate per watt of cooling capacity. Check inputs.",
    "   **   ~~~   **    3) is used as part of a HX assisted cooling coil which uses a high sensible effectiveness. Check inputs.",
    "   ** Warning ** GetDensityGlycol: Temperature is out of range (too high) for fluid [WATER] density **",
    "   **   ~~~   ** ..Called From:PlantPumps:CalcPumps: ,Temperature=[100.12], supplied data range=[0.00,100.00]",
    "   **   ~~~   **  Environment=LOS-ANGELES-INTL_722950_CZ2010, at Simulation time=06/06 05:45 - 06:00",
    "   ** Warning ** The resource referenced by LifeCycleCost:UsePriceEscalation= \"U.S. AVG  COMMERCIAL-ELECTRICITY\" has no energy cost. ",
    "   **   ~~~   ** ... It is likely that the wrong resource is used. The resource should match the meter used in Utility:Tariff.",
    "   ** Warning ** The resource referenced by LifeCycleCost:UsePriceEscalation= \"U.S. AVG  COMMERCIAL-DISTILLATE OIL\" has no energy cost. ",
    "   **   ~~~   ** ... It is likely that the wrong resource is used. The resource should match the meter used in Utility:Tariff.",
    "   ** Warning ** The resource referenced by LifeCycleCost:UsePriceEscalation= \"U.S. AVG  COMMERCIAL-RESIDUAL OIL\" has no energy cost. ",
    "   **   ~~~   ** ... It is likely that the wrong resource is used. The resource should match the meter used in Utility:Tariff.",
    "   ** Warning ** The resource referenced by LifeCycleCost:UsePriceEscalation= \"U.S. AVG  COMMERCIAL-NATURAL GAS\" has no energy cost. ",
    "   **   ~~~   ** ... It is likely that the wrong resource is used. The resource should match the meter used in Utility:Tariff.",
    "   ** Warning ** The resource referenced by LifeCycleCost:UsePriceEscalation= \"U.S. AVG  COMMERCIAL-COAL\" has no energy cost. ",
    "   **   ~~~   ** ... It is likely that the wrong resource is used. The resource should match the meter used in Utility:Tariff.",
    "   ************* Simulation Error Summary *************",
    "   ************* There are 16 unused schedules in input.",
    "   ************* There are 7 unused week schedules in input.",
    "   ************* There are 22 unused day schedules in input.",
    "   ************* Use Output:Diagnostics,DisplayUnusedSchedules; to see them.",
    "   *************",
    "   ************* ===== Recurring Error Summary =====",
    "   ************* The following recurring error messages occurred.",
    "   *************",
    "   *************  ** Warning ** SimHVAC: Exceeding Maximum iterations for all HVAC loops, during LOS-ANGELES-INTL_722950_CZ2010 continues",
    "   *************  **   ~~~   **   This error occurred 647 total times;",
    "   *************  **   ~~~   **   during Warmup 0 times;",
    "   *************  **   ~~~   **   during Sizing 0 times.",
    "   *************",
    "   *************  ** Warning ** CalcDoe2DXCoil: Coil:Cooling:DX:SingleSpeed=\"BOTTOM VAV COILCOOLING\" - Air volume flow rate per watt of rated total cooling capacity is out of range error continues...",
    "   *************  **   ~~~   **   This error occurred 122720 total times;",
    "   *************  **   ~~~   **   during Warmup 0 times;",
    "   *************  **   ~~~   **   during Sizing 0 times.",
    "   *************  **   ~~~   **   Max=2.683960E-005  Min=1.008579E-005",
    "   *************",
    "   *************  ** Warning ** CalcDoe2DXCoil: Coil:Cooling:DX:SingleSpeed=\"MID VAV COILCOOLING\" - Air volume flow rate per watt of rated total cooling capacity is out of range error continues...",
    "   *************  **   ~~~   **   This error occurred 134728 total times;",
    "   *************  **   ~~~   **   during Warmup 0 times;",
    "   *************  **   ~~~   **   during Sizing 0 times.",
    "   *************  **   ~~~   **   Max=2.683992E-005  Min=1.008716E-005",
    "   *************",
    "   *************  ** Warning ** CalcDoe2DXCoil: Coil:Cooling:DX:SingleSpeed=\"BOTTOM VAV COILCOOLING\" - Full load outlet temperature indicates a possibility of frost/freeze error continues. Outlet air temperature statistics follow:",
    "   *************  **   ~~~   **   This error occurred 12628 total times;",
    "   *************  **   ~~~   **   during Warmup 0 times;",
    "   *************  **   ~~~   **   during Sizing 0 times.",
    "   *************  **   ~~~   **   Max=1.999639  Min=-43.399003",
    "   *************",
    "   *************  ** Warning ** CalcDoe2DXCoil: Coil:Cooling:DX:SingleSpeed=\"MID VAV COILCOOLING\" - Full load outlet temperature indicates a possibility of frost/freeze error continues. Outlet air temperature statistics follow:",
    "   *************  **   ~~~   **   This error occurred 14193 total times;",
    "   *************  **   ~~~   **   during Warmup 0 times;",
    "   *************  **   ~~~   **   during Sizing 0 times.",
    "   *************  **   ~~~   **   Max=1.999216  Min=-40.370176",
    "   *************",
    "   *************  ** Warning ** GetDensityGlycol: Temperature out of range (too high) for fluid [WATER] density **",
    "   *************  **   ~~~   **   This error occurred 42501 total times;",
    "   *************  **   ~~~   **   during Warmup 0 times;",
    "   *************  **   ~~~   **   during Sizing 0 times.",
    "   *************  **   ~~~   **   Max=108.198708 {C}  Min=100.060441 {C}",
    "   *************",
    "   *************  ** Warning ** Plant loop exceeding upper temperature limit, PlantLoop=\"HOTWATER LOOP\"",
    "   *************  **   ~~~   **   This error occurred 975 total times;",
    "   *************  **   ~~~   **   during Warmup 0 times;",
    "   *************  **   ~~~   **   during Sizing 0 times.",
    "   *************  **   ~~~   **   Max=107.992615",
    "   *************",
    "   *************",
    "   ************* ===== Final Error Summary =====",
    "   ************* The following error categories occurred.  Consider correcting or noting.",
    "   ************* Loads Initialization did not Converge",
    "   ************* ..1) very high thermal mass such as very thick concrete (solution: increase max number of warmup",
    "   ************* ..   days in the BUILDING object);",
    "   ************* ..2) moderate mass and inadequate space conditioning such that the building keeps getting warmer",
    "   ************* ..   and warmer on successive days (solution: add HVAC, check building thermal properties,",
    "   ************* ..   check if infiltration is included, make sure HVAC properly controlled);",
    "   ************* ..3) a soil layer modeled below the concrete slab - (solution remove this layer and read about",
    "   ************* ..   ground temperatures in the Auxiliary Programs document).",
    "   ************* ..4) unreasonable (too small) limits in the BUILDING object for temperature (.4 default) or",
    "   ************* ..   loads tolerances (.04 default)",
    "   *************",
    "   ************* EnergyPlus Warmup Error Summary. During Warmup: 0 Warning; 5 Severe Errors.",
    "   ************* EnergyPlus Sizing Error Summary. During Sizing: 68 Warning; 0 Severe Errors.",
    "   ************* EnergyPlus Completed Successfully-- 328583 Warning; 5 Severe Errors; "
  ],
  "file_paths": [
    "/home/julien/Software/Others/OpenStudio-resources/testruns/030006_OffMed_Run19.xml/generated_files",
    "./files",
    "./weather",
    "../../files",
    "../../weather",
    "./"
  ],
  "seed_file": "in.osm",
  "steps": [
    {
      "arguments": {
      },
      "measure_dir_name": "openstudio_results",
      "result": {
        "measure_class_name": "OpenStudioResults",
        "measure_display_name": "OpenStudio Results",
        "measure_name": "openstudio_results",
        "measure_taxonomy": "Reporting.QAQC",
        "measure_type": "ReportingMeasure",
        "measure_uid": "a25386cd-60e4-46bc-8b11-c755f379d916",
        "measure_version_id": "02ad7007-fe7b-4747-bd7a-29d697c4d91a",
        "measure_version_modified": "20180711T183039Z",
        "measure_xml_checksum": "557BF06F",
        "stderr": "",
        "stdout": "",
        "step_errors": [

        ],
        "step_final_condition": "Generated report with 19 sections to ./report.html.",
        "step_info": [

        ],
        "step_initial_condition": "Gathering data from EnergyPlus SQL file and OSM model.",
        "step_result": "Success",
        "step_values": [
          {
            "name": "building_summary_section",
            "value": true
          },
          {
            "name": "annual_overview_section",
            "value": true
          },
          {
            "name": "monthly_overview_section",
            "value": true
          },
          {
            "name": "utility_bills_rates_section",
            "value": true
          },
          {
            "name": "envelope_section_section",
            "value": true
          },
          {
            "name": "space_type_breakdown_section",
            "value": true
          },
          {
            "name": "space_type_details_section",
            "value": true
          },
          {
            "name": "interior_lighting_section",
            "value": true
          },
          {
            "name": "plug_loads_section",
            "value": true
          },
          {
            "name": "exterior_light_section",
            "value": true
          },
          {
            "name": "water_use_section",
            "value": true
          },
          {
            "name": "hvac_load_profile",
            "value": true
          },
          {
            "name": "zone_condition_section",
            "value": true
          },
          {
            "name": "zone_summary_section",
            "value": true
          },
          {
            "name": "zone_equipment_detail_section",
            "value": true
          },
          {
            "name": "air_loops_detail_section",
            "value": true
          },
          {
            "name": "plant_loops_detail_section",
            "value": true
          },
          {
            "name": "outdoor_air_section",
            "value": true
          },
          {
            "name": "cost_summary_section",
            "value": true
          },
          {
            "name": "source_energy_section",
            "value": true
          },
          {
            "name": "schedules_overview_section",
            "value": true
          },
          {
            "name": "standards_gem_version",
            "value": "0.2.12"
          },
          {
            "name": "workflow_gem_version",
            "value": "2.1.0"
          },
          {
            "display_name": "OfficeMedium",
            "name": "building_name",
            "value": "n/a"
          },
          {
            "name": "total_site_energy",
            "units": "kBtu",
            "value": 14389276.13
          },
          {
            "name": "net_site_energy",
            "units": "kBtu",
            "value": 14389276.13
          },
          {
            "name": "total_building_area",
            "units": "ft^2",
            "value": 107255.59
          },
          {
            "name": "total_site_eui",
            "units": "kBtu/ft^2",
            "value": 134.16
          },
          {
            "name": "eui",
            "units": "kBtu/ft^2",
            "value": 134.16
          },
          {
            "name": "unmet_hours_during_heating",
            "units": "hr",
            "value": 225.0
          },
          {
            "name": "unmet_hours_during_cooling",
            "units": "hr",
            "value": 17.5
          },
          {
            "name": "unmet_hours_during_occupied_heating",
            "units": "hr",
            "value": 90.5
          },
          {
            "name": "unmet_hours_during_occupied_cooling",
            "units": "hr",
            "value": 0.0
          },
          {
            "name": "unmet_hours_tolerance_heating",
            "units": "F",
            "value": 1.01
          },
          {
            "name": "unmet_hours_tolerance_cooling",
            "units": "F",
            "value": 1.01
          },
          {
            "name": "electricity_heating_ip",
            "units": "kWh",
            "value": 23.91
          },
          {
            "name": "electricity_cooling_ip",
            "units": "kWh",
            "value": 174949.3
          },
          {
            "name": "electricity_interior_lighting_ip",
            "units": "kWh",
            "value": 102367.19
          },
          {
            "name": "electricity_exterior_lighting_ip",
            "units": "kWh",
            "value": 0.0
          },
          {
            "name": "electricity_interior_equipment_ip",
            "units": "kWh",
            "value": 3577113.06
          },
          {
            "name": "electricity_exterior_equipment_ip",
            "units": "kWh",
            "value": 0.0
          },
          {
            "name": "electricity_fans_ip",
            "units": "kWh",
            "value": 218900.75
          },
          {
            "name": "electricity_pumps_ip",
            "units": "kWh",
            "value": 5495.64
          },
          {
            "name": "electricity_heat_rejection_ip",
            "units": "kWh",
            "value": 0.0
          },
          {
            "name": "electricity_humidification_ip",
            "units": "kWh",
            "value": 0.0
          },
          {
            "name": "electricity_heat_recovery_ip",
            "units": "kWh",
            "value": 0.0
          },
          {
            "name": "electricity_water_systems_ip",
            "units": "kWh",
            "value": 0.0
          },
          {
            "name": "electricity_refrigeration_ip",
            "units": "kWh",
            "value": 0.0
          },
          {
            "name": "electricity_generators_ip",
            "units": "kWh",
            "value": 0.0
          },
          {
            "name": "electricity_ip",
            "units": "kWh",
            "value": 4078849.85
          },
          {
            "name": "natural_gas_heating_ip",
            "units": "MBtu",
            "value": 423.07
          },
          {
            "name": "natural_gas_cooling_ip",
            "units": "MBtu",
            "value": 0.0
          },
          {
            "name": "natural_gas_interior_lighting_ip",
            "units": "MBtu",
            "value": 0.0
          },
          {
            "name": "natural_gas_exterior_lighting_ip",
            "units": "MBtu",
            "value": 0.0
          },
          {
            "name": "natural_gas_interior_equipment_ip",
            "units": "MBtu",
            "value": 0.0
          },
          {
            "name": "natural_gas_exterior_equipment_ip",
            "units": "MBtu",
            "value": 0.0
          },
          {
            "name": "natural_gas_fans_ip",
            "units": "MBtu",
            "value": 0.0
          },
          {
            "name": "natural_gas_pumps_ip",
            "units": "MBtu",
            "value": 0.0
          },
          {
            "name": "natural_gas_heat_rejection_ip",
            "units": "MBtu",
            "value": 0.0
          },
          {
            "name": "natural_gas_humidification_ip",
            "units": "MBtu",
            "value": 0.0
          },
          {
            "name": "natural_gas_heat_recovery_ip",
            "units": "MBtu",
            "value": 0.0
          },
          {
            "name": "natural_gas_water_systems_ip",
            "units": "MBtu",
            "value": 48.59
          },
          {
            "name": "natural_gas_refrigeration_ip",
            "units": "MBtu",
            "value": 0.0
          },
          {
            "name": "natural_gas_generators_ip",
            "units": "MBtu",
            "value": 0.0
          },
          {
            "name": "natural_gas_ip",
            "units": "MBtu",
            "value": 471.66
          },
          {
            "name": "gasoline_heating_ip",
            "units": "MBtu",
            "value": 0.0
          },
          {
            "name": "gasoline_cooling_ip",
            "units": "MBtu",
            "value": 0.0
          },
          {
            "name": "gasoline_interior_lighting_ip",
            "units": "MBtu",
            "value": 0.0
          },
          {
            "name": "gasoline_exterior_lighting_ip",
            "units": "MBtu",
            "value": 0.0
          },
          {
            "name": "gasoline_interior_equipment_ip",
            "units": "MBtu",
            "value": 0.0
          },
          {
            "name": "gasoline_exterior_equipment_ip",
            "units": "MBtu",
            "value": 0.0
          },
          {
            "name": "gasoline_fans_ip",
            "units": "MBtu",
            "value": 0.0
          },
          {
            "name": "gasoline_pumps_ip",
            "units": "MBtu",
            "value": 0.0
          },
          {
            "name": "gasoline_heat_rejection_ip",
            "units": "MBtu",
            "value": 0.0
          },
          {
            "name": "gasoline_humidification_ip",
            "units": "MBtu",
            "value": 0.0
          },
          {
            "name": "gasoline_heat_recovery_ip",
            "units": "MBtu",
            "value": 0.0
          },
          {
            "name": "gasoline_water_systems_ip",
            "units": "MBtu",
            "value": 0.0
          },
          {
            "name": "gasoline_refrigeration_ip",
            "units": "MBtu",
            "value": 0.0
          },
          {
            "name": "gasoline_generators_ip",
            "units": "MBtu",
            "value": 0.0
          },
          {
            "name": "gasoline_ip",
            "units": "MBtu",
            "value": 0.0
          },
          {
            "name": "diesel_heating_ip",
            "units": "MBtu",
            "value": 0.0
          },
          {
            "name": "diesel_cooling_ip",
            "units": "MBtu",
            "value": 0.0
          },
          {
            "name": "diesel_interior_lighting_ip",
            "units": "MBtu",
            "value": 0.0
          },
          {
            "name": "diesel_exterior_lighting_ip",
            "units": "MBtu",
            "value": 0.0
          },
          {
            "name": "diesel_interior_equipment_ip",
            "units": "MBtu",
            "value": 0.0
          },
          {
            "name": "diesel_exterior_equipment_ip",
            "units": "MBtu",
            "value": 0.0
          },
          {
            "name": "diesel_fans_ip",
            "units": "MBtu",
            "value": 0.0
          },
          {
            "name": "diesel_pumps_ip",
            "units": "MBtu",
            "value": 0.0
          },
          {
            "name": "diesel_heat_rejection_ip",
            "units": "MBtu",
            "value": 0.0
          },
          {
            "name": "diesel_humidification_ip",
            "units": "MBtu",
            "value": 0.0
          },
          {
            "name": "diesel_heat_recovery_ip",
            "units": "MBtu",
            "value": 0.0
          },
          {
            "name": "diesel_water_systems_ip",
            "units": "MBtu",
            "value": 0.0
          },
          {
            "name": "diesel_refrigeration_ip",
            "units": "MBtu",
            "value": 0.0
          },
          {
            "name": "diesel_generators_ip",
            "units": "MBtu",
            "value": 0.0
          },
          {
            "name": "diesel_ip",
            "units": "MBtu",
            "value": 0.0
          },
          {
            "name": "coal_heating_ip",
            "units": "MBtu",
            "value": 0.0
          },
          {
            "name": "coal_cooling_ip",
            "units": "MBtu",
            "value": 0.0
          },
          {
            "name": "coal_interior_lighting_ip",
            "units": "MBtu",
            "value": 0.0
          },
          {
            "name": "coal_exterior_lighting_ip",
            "units": "MBtu",
            "value": 0.0
          },
          {
            "name": "coal_interior_equipment_ip",
            "units": "MBtu",
            "value": 0.0
          },
          {
            "name": "coal_exterior_equipment_ip",
            "units": "MBtu",
            "value": 0.0
          },
          {
            "name": "coal_fans_ip",
            "units": "MBtu",
            "value": 0.0
          },
          {
            "name": "coal_pumps_ip",
            "units": "MBtu",
            "value": 0.0
          },
          {
            "name": "coal_heat_rejection_ip",
            "units": "MBtu",
            "value": 0.0
          },
          {
            "name": "coal_humidification_ip",
            "units": "MBtu",
            "value": 0.0
          },
          {
            "name": "coal_heat_recovery_ip",
            "units": "MBtu",
            "value": 0.0
          },
          {
            "name": "coal_water_systems_ip",
            "units": "MBtu",
            "value": 0.0
          },
          {
            "name": "coal_refrigeration_ip",
            "units": "MBtu",
            "value": 0.0
          },
          {
            "name": "coal_generators_ip",
            "units": "MBtu",
            "value": 0.0
          },
          {
            "name": "coal_ip",
            "units": "MBtu",
            "value": 0.0
          },
          {
            "name": "fuel_oil_no_1_heating_ip",
            "units": "MBtu",
            "value": 0.0
          },
          {
            "name": "fuel_oil_no_1_cooling_ip",
            "units": "MBtu",
            "value": 0.0
          },
          {
            "name": "fuel_oil_no_1_interior_lighting_ip",
            "units": "MBtu",
            "value": 0.0
          },
          {
            "name": "fuel_oil_no_1_exterior_lighting_ip",
            "units": "MBtu",
            "value": 0.0
          },
          {
            "name": "fuel_oil_no_1_interior_equipment_ip",
            "units": "MBtu",
            "value": 0.0
          },
          {
            "name": "fuel_oil_no_1_exterior_equipment_ip",
            "units": "MBtu",
            "value": 0.0
          },
          {
            "name": "fuel_oil_no_1_fans_ip",
            "units": "MBtu",
            "value": 0.0
          },
          {
            "name": "fuel_oil_no_1_pumps_ip",
            "units": "MBtu",
            "value": 0.0
          },
          {
            "name": "fuel_oil_no_1_heat_rejection_ip",
            "units": "MBtu",
            "value": 0.0
          },
          {
            "name": "fuel_oil_no_1_humidification_ip",
            "units": "MBtu",
            "value": 0.0
          },
          {
            "name": "fuel_oil_no_1_heat_recovery_ip",
            "units": "MBtu",
            "value": 0.0
          },
          {
            "name": "fuel_oil_no_1_water_systems_ip",
            "units": "MBtu",
            "value": 0.0
          },
          {
            "name": "fuel_oil_no_1_refrigeration_ip",
            "units": "MBtu",
            "value": 0.0
          },
          {
            "name": "fuel_oil_no_1_generators_ip",
            "units": "MBtu",
            "value": 0.0
          },
          {
            "name": "fuel_oil_no_1_ip",
            "units": "MBtu",
            "value": 0.0
          },
          {
            "name": "fuel_oil_no_2_heating_ip",
            "units": "MBtu",
            "value": 0.0
          },
          {
            "name": "fuel_oil_no_2_cooling_ip",
            "units": "MBtu",
            "value": 0.0
          },
          {
            "name": "fuel_oil_no_2_interior_lighting_ip",
            "units": "MBtu",
            "value": 0.0
          },
          {
            "name": "fuel_oil_no_2_exterior_lighting_ip",
            "units": "MBtu",
            "value": 0.0
          },
          {
            "name": "fuel_oil_no_2_interior_equipment_ip",
            "units": "MBtu",
            "value": 0.0
          },
          {
            "name": "fuel_oil_no_2_exterior_equipment_ip",
            "units": "MBtu",
            "value": 0.0
          },
          {
            "name": "fuel_oil_no_2_fans_ip",
            "units": "MBtu",
            "value": 0.0
          },
          {
            "name": "fuel_oil_no_2_pumps_ip",
            "units": "MBtu",
            "value": 0.0
          },
          {
            "name": "fuel_oil_no_2_heat_rejection_ip",
            "units": "MBtu",
            "value": 0.0
          },
          {
            "name": "fuel_oil_no_2_humidification_ip",
            "units": "MBtu",
            "value": 0.0
          },
          {
            "name": "fuel_oil_no_2_heat_recovery_ip",
            "units": "MBtu",
            "value": 0.0
          },
          {
            "name": "fuel_oil_no_2_water_systems_ip",
            "units": "MBtu",
            "value": 0.0
          },
          {
            "name": "fuel_oil_no_2_refrigeration_ip",
            "units": "MBtu",
            "value": 0.0
          },
          {
            "name": "fuel_oil_no_2_generators_ip",
            "units": "MBtu",
            "value": 0.0
          },
          {
            "name": "fuel_oil_no_2_ip",
            "units": "MBtu",
            "value": 0.0
          },
          {
            "name": "propane_heating_ip",
            "units": "MBtu",
            "value": 0.0
          },
          {
            "name": "propane_cooling_ip",
            "units": "MBtu",
            "value": 0.0
          },
          {
            "name": "propane_interior_lighting_ip",
            "units": "MBtu",
            "value": 0.0
          },
          {
            "name": "propane_exterior_lighting_ip",
            "units": "MBtu",
            "value": 0.0
          },
          {
            "name": "propane_interior_equipment_ip",
            "units": "MBtu",
            "value": 0.0
          },
          {
            "name": "propane_exterior_equipment_ip",
            "units": "MBtu",
            "value": 0.0
          },
          {
            "name": "propane_fans_ip",
            "units": "MBtu",
            "value": 0.0
          },
          {
            "name": "propane_pumps_ip",
            "units": "MBtu",
            "value": 0.0
          },
          {
            "name": "propane_heat_rejection_ip",
            "units": "MBtu",
            "value": 0.0
          },
          {
            "name": "propane_humidification_ip",
            "units": "MBtu",
            "value": 0.0
          },
          {
            "name": "propane_heat_recovery_ip",
            "units": "MBtu",
            "value": 0.0
          },
          {
            "name": "propane_water_systems_ip",
            "units": "MBtu",
            "value": 0.0
          },
          {
            "name": "propane_refrigeration_ip",
            "units": "MBtu",
            "value": 0.0
          },
          {
            "name": "propane_generators_ip",
            "units": "MBtu",
            "value": 0.0
          },
          {
            "name": "propane_ip",
            "units": "MBtu",
            "value": 0.0
          },
          {
            "name": "other_fuel_1_heating_ip",
            "units": "MBtu",
            "value": 0.0
          },
          {
            "name": "other_fuel_1_cooling_ip",
            "units": "MBtu",
            "value": 0.0
          },
          {
            "name": "other_fuel_1_interior_lighting_ip",
            "units": "MBtu",
            "value": 0.0
          },
          {
            "name": "other_fuel_1_exterior_lighting_ip",
            "units": "MBtu",
            "value": 0.0
          },
          {
            "name": "other_fuel_1_interior_equipment_ip",
            "units": "MBtu",
            "value": 0.0
          },
          {
            "name": "other_fuel_1_exterior_equipment_ip",
            "units": "MBtu",
            "value": 0.0
          },
          {
            "name": "other_fuel_1_fans_ip",
            "units": "MBtu",
            "value": 0.0
          },
          {
            "name": "other_fuel_1_pumps_ip",
            "units": "MBtu",
            "value": 0.0
          },
          {
            "name": "other_fuel_1_heat_rejection_ip",
            "units": "MBtu",
            "value": 0.0
          },
          {
            "name": "other_fuel_1_humidification_ip",
            "units": "MBtu",
            "value": 0.0
          },
          {
            "name": "other_fuel_1_heat_recovery_ip",
            "units": "MBtu",
            "value": 0.0
          },
          {
            "name": "other_fuel_1_water_systems_ip",
            "units": "MBtu",
            "value": 0.0
          },
          {
            "name": "other_fuel_1_refrigeration_ip",
            "units": "MBtu",
            "value": 0.0
          },
          {
            "name": "other_fuel_1_generators_ip",
            "units": "MBtu",
            "value": 0.0
          },
          {
            "name": "other_fuel_1_ip",
            "units": "MBtu",
            "value": 0.0
          },
          {
            "name": "other_fuel_2_heating_ip",
            "units": "MBtu",
            "value": 0.0
          },
          {
            "name": "other_fuel_2_cooling_ip",
            "units": "MBtu",
            "value": 0.0
          },
          {
            "name": "other_fuel_2_interior_lighting_ip",
            "units": "MBtu",
            "value": 0.0
          },
          {
            "name": "other_fuel_2_exterior_lighting_ip",
            "units": "MBtu",
            "value": 0.0
          },
          {
            "name": "other_fuel_2_interior_equipment_ip",
            "units": "MBtu",
            "value": 0.0
          },
          {
            "name": "other_fuel_2_exterior_equipment_ip",
            "units": "MBtu",
            "value": 0.0
          },
          {
            "name": "other_fuel_2_fans_ip",
            "units": "MBtu",
            "value": 0.0
          },
          {
            "name": "other_fuel_2_pumps_ip",
            "units": "MBtu",
            "value": 0.0
          },
          {
            "name": "other_fuel_2_heat_rejection_ip",
            "units": "MBtu",
            "value": 0.0
          },
          {
            "name": "other_fuel_2_humidification_ip",
            "units": "MBtu",
            "value": 0.0
          },
          {
            "name": "other_fuel_2_heat_recovery_ip",
            "units": "MBtu",
            "value": 0.0
          },
          {
            "name": "other_fuel_2_water_systems_ip",
            "units": "MBtu",
            "value": 0.0
          },
          {
            "name": "other_fuel_2_refrigeration_ip",
            "units": "MBtu",
            "value": 0.0
          },
          {
            "name": "other_fuel_2_generators_ip",
            "units": "MBtu",
            "value": 0.0
          },
          {
            "name": "other_fuel_2_ip",
            "units": "MBtu",
            "value": 0.0
          },
          {
            "name": "district_cooling_heating_ip",
            "units": "MBtu",
            "value": 0.0
          },
          {
            "name": "district_cooling_cooling_ip",
            "units": "MBtu",
            "value": 0.0
          },
          {
            "name": "district_cooling_interior_lighting_ip",
            "units": "MBtu",
            "value": 0.0
          },
          {
            "name": "district_cooling_exterior_lighting_ip",
            "units": "MBtu",
            "value": 0.0
          },
          {
            "name": "district_cooling_interior_equipment_ip",
            "units": "MBtu",
            "value": 0.0
          },
          {
            "name": "district_cooling_exterior_equipment_ip",
            "units": "MBtu",
            "value": 0.0
          },
          {
            "name": "district_cooling_fans_ip",
            "units": "MBtu",
            "value": 0.0
          },
          {
            "name": "district_cooling_pumps_ip",
            "units": "MBtu",
            "value": 0.0
          },
          {
            "name": "district_cooling_heat_rejection_ip",
            "units": "MBtu",
            "value": 0.0
          },
          {
            "name": "district_cooling_humidification_ip",
            "units": "MBtu",
            "value": 0.0
          },
          {
            "name": "district_cooling_heat_recovery_ip",
            "units": "MBtu",
            "value": 0.0
          },
          {
            "name": "district_cooling_water_systems_ip",
            "units": "MBtu",
            "value": 0.0
          },
          {
            "name": "district_cooling_refrigeration_ip",
            "units": "MBtu",
            "value": 0.0
          },
          {
            "name": "district_cooling_generators_ip",
            "units": "MBtu",
            "value": 0.0
          },
          {
            "name": "district_cooling_ip",
            "units": "MBtu",
            "value": 0.0
          },
          {
            "name": "district_heating_heating_ip",
            "units": "MBtu",
            "value": 0.0
          },
          {
            "name": "district_heating_cooling_ip",
            "units": "MBtu",
            "value": 0.0
          },
          {
            "name": "district_heating_interior_lighting_ip",
            "units": "MBtu",
            "value": 0.0
          },
          {
            "name": "district_heating_exterior_lighting_ip",
            "units": "MBtu",
            "value": 0.0
          },
          {
            "name": "district_heating_interior_equipment_ip",
            "units": "MBtu",
            "value": 0.0
          },
          {
            "name": "district_heating_exterior_equipment_ip",
            "units": "MBtu",
            "value": 0.0
          },
          {
            "name": "district_heating_fans_ip",
            "units": "MBtu",
            "value": 0.0
          },
          {
            "name": "district_heating_pumps_ip",
            "units": "MBtu",
            "value": 0.0
          },
          {
            "name": "district_heating_heat_rejection_ip",
            "units": "MBtu",
            "value": 0.0
          },
          {
            "name": "district_heating_humidification_ip",
            "units": "MBtu",
            "value": 0.0
          },
          {
            "name": "district_heating_heat_recovery_ip",
            "units": "MBtu",
            "value": 0.0
          },
          {
            "name": "district_heating_water_systems_ip",
            "units": "MBtu",
            "value": 0.0
          },
          {
            "name": "district_heating_refrigeration_ip",
            "units": "MBtu",
            "value": 0.0
          },
          {
            "name": "district_heating_generators_ip",
            "units": "MBtu",
            "value": 0.0
          },
          {
            "name": "district_heating_ip",
            "units": "MBtu",
            "value": 0.0
          },
          {
            "name": "water_heating_ip",
            "units": "MBtu",
            "value": 0.0
          },
          {
            "name": "water_cooling_ip",
            "units": "MBtu",
            "value": 0.0
          },
          {
            "name": "water_interior_lighting_ip",
            "units": "MBtu",
            "value": 0.0
          },
          {
            "name": "water_exterior_lighting_ip",
            "units": "MBtu",
            "value": 0.0
          },
          {
            "name": "water_interior_equipment_ip",
            "units": "MBtu",
            "value": 0.0
          },
          {
            "name": "water_exterior_equipment_ip",
            "units": "MBtu",
            "value": 0.0
          },
          {
            "name": "water_fans_ip",
            "units": "MBtu",
            "value": 0.0
          },
          {
            "name": "water_pumps_ip",
            "units": "MBtu",
            "value": 0.0
          },
          {
            "name": "water_heat_rejection_ip",
            "units": "MBtu",
            "value": 0.0
          },
          {
            "name": "water_humidification_ip",
            "units": "MBtu",
            "value": 0.0
          },
          {
            "name": "water_heat_recovery_ip",
            "units": "MBtu",
            "value": 0.0
          },
          {
            "name": "water_water_systems_ip",
            "units": "MBtu",
            "value": 0.0
          },
          {
            "name": "water_refrigeration_ip",
            "units": "MBtu",
            "value": 0.0
          },
          {
            "name": "water_generators_ip",
            "units": "MBtu",
            "value": 0.0
          },
          {
            "name": "water_ip",
            "units": "MBtu",
            "value": 0.0
          },
          {
            "name": "nacm_metal_framed_wall",
            "units": "ft^2",
            "value": 14260.92
          },
          {
            "name": "nacm_roof",
            "units": "ft^2",
            "value": 17875.93
          },
          {
            "name": "fixed_window",
            "units": "ft^2",
            "value": 7026.53
          },
          {
            "name": "gross_window_wall_ratio",
            "units": "%",
            "value": 33.01
          },
          {
            "name": "gross_window_wall_ratio_conditioned",
            "units": "%",
            "value": 47.68
          },
          {
            "name": "skylight_roof_ratio",
            "units": "%",
            "value": 0.0
          },
          {
            "name": "space_type_no_space_type",
            "units": "ft^2",
            "value": 107255.59
          },
          {
            "name": "exterior_lighting_total_power",
            "units": "W",
            "value": 0.0
          },
          {
            "name": "exterior_lighting_total_consumption",
            "units": "kWh",
            "value": 4217080.56
          },
          {
            "name": "core_bottom_water_use_equipment",
            "units": "gal/min",
            "value": 0.05
          },
          {
            "name": "core_mid_water_use_equipment",
            "units": "gal/min",
            "value": 0.05
          },
          {
            "name": "core_top_water_use_equipment",
            "units": "gal/min",
            "value": 0.05
          },
          {
            "name": "perimeter_bot_zn_1_water_use_equipment",
            "units": "gal/min",
            "value": 0.03
          },
          {
            "name": "perimeter_bot_zn_2_water_use_equipment",
            "units": "gal/min",
            "value": 0.02
          },
          {
            "name": "perimeter_bot_zn_3_water_use_equipment",
            "units": "gal/min",
            "value": 0.03
          },
          {
            "name": "perimeter_bot_zn_4_water_use_equipment",
            "units": "gal/min",
            "value": 0.02
          },
          {
            "name": "perimeter_mid_zn_1_water_use_equipment",
            "units": "gal/min",
            "value": 0.03
          },
          {
            "name": "perimeter_mid_zn_2_water_use_equipment",
            "units": "gal/min",
            "value": 0.02
          },
          {
            "name": "perimeter_mid_zn_3_water_use_equipment",
            "units": "gal/min",
            "value": 0.03
          },
          {
            "name": "perimeter_mid_zn_4_water_use_equipment",
            "units": "gal/min",
            "value": 0.02
          },
          {
            "name": "perimeter_top_zn_1_water_use_equipment",
            "units": "gal/min",
            "value": 0.03
          },
          {
            "name": "perimeter_top_zn_2_water_use_equipment",
            "units": "gal/min",
            "value": 0.02
          },
          {
            "name": "perimeter_top_zn_3_water_use_equipment",
            "units": "gal/min",
            "value": 0.03
          },
          {
            "name": "perimeter_top_zn_4_water_use_equipment",
            "units": "gal/min",
            "value": 0.02
          },
          {
            "name": "inflation_approach",
            "value": "Constant Dollar"
          },
          {
            "name": "analysis_length",
            "units": "yrs",
            "value": 25
          },
          {
            "name": "annual_peak_electric_demand",
            "units": "kW",
            "value": 949.84
          },
          {
            "name": "first_year_capital_cost",
            "units": "$",
            "value": 0.0
          },
          {
            "name": "annual_utility_cost",
            "units": "$",
            "value": 0.0
          },
          {
            "name": "total_lifecycle_cost",
            "units": "$",
            "value": 0.0
          }
        ],
        "step_warnings": [
          "Annual Overview section failed and was skipped because: Optional not initialized. Detail on error follows.",
          "/home/julien/Software/Others/OpenStudio-resources/measures/openstudio_results/measure.rb:237:in `eval'\n/home/julien/Software/Others/OpenStudio-resources/measures/openstudio_results/resources/os_lib_reporting.rb:501:in `block in output_data_end_use_table'\n/home/julien/Software/Others/OpenStudio-resources/measures/openstudio_results/resources/os_lib_reporting.rb:491:in `each'\n/home/julien/Software/Others/OpenStudio-resources/measures/openstudio_results/resources/os_lib_reporting.rb:491:in `output_data_end_use_table'\n/home/julien/Software/Others/OpenStudio-resources/measures/openstudio_results/resources/os_lib_reporting.rb:258:in `annual_overview_section'\n(eval):1:in `block in run'\n/home/julien/Software/Others/OpenStudio-resources/measures/openstudio_results/measure.rb:237:in `eval'\n/home/julien/Software/Others/OpenStudio-resources/measures/openstudio_results/measure.rb:237:in `block in run'\n/home/julien/Software/Others/OpenStudio-resources/measures/openstudio_results/measure.rb:233:in `each'\n/home/julien/Software/Others/OpenStudio-resources/measures/openstudio_results/measure.rb:233:in `run'\n:/ruby/2.5.0/gems/openstudio-workflow-2.1.0/lib/openstudio/workflow/util/measure.rb:519:in `apply_measure'\n:/ruby/2.5.0/gems/openstudio-workflow-2.1.0/lib/openstudio/workflow/util/measure.rb:114:in `block in apply_measures'\n:/ruby/2.5.0/gems/openstudio-workflow-2.1.0/lib/openstudio/workflow/util/measure.rb:67:in `each_index'\n:/ruby/2.5.0/gems/openstudio-workflow-2.1.0/lib/openstudio/workflow/util/measure.rb:67:in `apply_measures'\n:/ruby/2.5.0/gems/openstudio-workflow-2.1.0/lib/openstudio/workflow/jobs/run_reporting_measures.rb:105:in `perform'\n:/ruby/2.5.0/gems/openstudio-workflow-2.1.0/lib/openstudio/workflow/run.rb:292:in `step'\n:/ruby/2.5.0/gems/openstudio-workflow-2.1.0/lib/openstudio/workflow/run.rb:234:in `run'\n:/openstudio_cli.rb:971:in `execute'\n:/openstudio_cli.rb:761:in `execute'\n:/openstudio_cli.rb:1755:in `<main>'\neval:175:in `eval'\neval:175:in `require_embedded_absolute'\neval:160:in `block in require_embedded'\neval:154:in `each'\neval:154:in `require_embedded'\neval:113:in `require'\neval:3:in `<main>'",
          "Air Loops Detail section failed and was skipped because: undefined method `minimumSetpointTemperature' for #<OpenStudio::Model::OptionalSetpointManagerWarmest:0x000055de957edbb8>. Detail on error follows.",
          "/home/julien/Software/Others/OpenStudio-resources/measures/openstudio_results/measure.rb:237:in `eval'\n/home/julien/Software/Others/OpenStudio-resources/measures/openstudio_results/resources/os_lib_reporting.rb:906:in `air_loop_component_summary_logic'\n/home/julien/Software/Others/OpenStudio-resources/measures/openstudio_results/resources/os_lib_reporting.rb:991:in `block (2 levels) in air_loops_detail_section'\n/home/julien/Software/Others/OpenStudio-resources/measures/openstudio_results/resources/os_lib_reporting.rb:984:in `each'\n/home/julien/Software/Others/OpenStudio-resources/measures/openstudio_results/resources/os_lib_reporting.rb:984:in `block in air_loops_detail_section'\n/home/julien/Software/Others/OpenStudio-resources/measures/openstudio_results/resources/os_lib_reporting.rb:969:in `each'\n/home/julien/Software/Others/OpenStudio-resources/measures/openstudio_results/resources/os_lib_reporting.rb:969:in `air_loops_detail_section'\n(eval):1:in `block in run'\n/home/julien/Software/Others/OpenStudio-resources/measures/openstudio_results/measure.rb:237:in `eval'\n/home/julien/Software/Others/OpenStudio-resources/measures/openstudio_results/measure.rb:237:in `block in run'\n/home/julien/Software/Others/OpenStudio-resources/measures/openstudio_results/measure.rb:233:in `each'\n/home/julien/Software/Others/OpenStudio-resources/measures/openstudio_results/measure.rb:233:in `run'\n:/ruby/2.5.0/gems/openstudio-workflow-2.1.0/lib/openstudio/workflow/util/measure.rb:519:in `apply_measure'\n:/ruby/2.5.0/gems/openstudio-workflow-2.1.0/lib/openstudio/workflow/util/measure.rb:114:in `block in apply_measures'\n:/ruby/2.5.0/gems/openstudio-workflow-2.1.0/lib/openstudio/workflow/util/measure.rb:67:in `each_index'\n:/ruby/2.5.0/gems/openstudio-workflow-2.1.0/lib/openstudio/workflow/util/measure.rb:67:in `apply_measures'\n:/ruby/2.5.0/gems/openstudio-workflow-2.1.0/lib/openstudio/workflow/jobs/run_reporting_measures.rb:105:in `perform'\n:/ruby/2.5.0/gems/openstudio-workflow-2.1.0/lib/openstudio/workflow/run.rb:292:in `step'\n:/ruby/2.5.0/gems/openstudio-workflow-2.1.0/lib/openstudio/workflow/run.rb:234:in `run'\n:/openstudio_cli.rb:971:in `execute'\n:/openstudio_cli.rb:761:in `execute'\n:/openstudio_cli.rb:1755:in `<main>'\neval:175:in `eval'\neval:175:in `require_embedded_absolute'\neval:160:in `block in require_embedded'\neval:154:in `each'\neval:154:in `require_embedded'\neval:113:in `require'\neval:3:in `<main>'"
        ]
      }
    }
  ],
  "weather_file": "../../weatherdata/USA_IL_Chicago-OHare.Intl.AP.725300_TMY3.epw"
}