{
  "completed_status": "Success",
  "current_step": 1,
  "eplusout_err": [
    "Program Version,EnergyPlus, Version 9.5.0-de239b2e5f, ",
    "   ************* Beginning Zone Sizing Calculations",
    "   ** Warning ** ProcessScheduleInput: Schedule:Constant=\"ALWAYS OFF DISCRETE\", Blank Schedule Type Limits Name input -- will not be validated.",
    "   ** Warning ** ProcessScheduleInput: Schedule:Constant=\"ALWAYS ON CONTINUOUS\", Blank Schedule Type Limits Name input -- will not be validated.",
    "   ** Warning ** Weather file location will be used rather than entered (IDF) Location object.",
    "   **   ~~~   ** ..Location object={DCC137F2-6A24-4B7C-AE87-B0393C4DA11F}",
    "   **   ~~~   ** ..Weather File Location=Chicago Ohare Intl Ap IL USA TMY3 WMO#=725300",
    "   **   ~~~   ** ..due to location differences, Latitude difference=[8.03] degrees, Longitude difference=[30.48] degrees.",
    "   **   ~~~   ** ..Time Zone difference=[2.0] hour(s), Elevation difference=[572.91] percent, [171.13] meters.",
    "   ** Warning ** GetSimpleAirModelInputs: ZoneInfiltration:DesignFlowRate=\"CORE_BOTTOM SPACE INFILTRATION DESIGN FLOW RATE 1\", Design Flow Rate Calculation Method specifies Flow per Exterior Surface Area, but Exterior Wall Area = 0.  0 Infiltration will result.",
    "   ** Warning ** GetSimpleAirModelInputs: ZoneInfiltration:DesignFlowRate=\"CORE_MID SPACE INFILTRATION DESIGN FLOW RATE 1\", Design Flow Rate Calculation Method specifies Flow per Exterior Surface Area, but Exterior Wall Area = 0.  0 Infiltration will result.",
    "   ** Warning ** GetSimpleAirModelInputs: ZoneInfiltration:DesignFlowRate=\"CORE_TOP SPACE INFILTRATION DESIGN FLOW RATE 1\", Design Flow Rate Calculation Method specifies Flow per Exterior Surface Area, but Exterior Wall Area = 0.  0 Infiltration will result.",
    "   ************* Beginning System Sizing Calculations",
    "   ** Warning ** Since Zone Minimum Air Flow Input Method = FIXEDFLOWRATE, input for Constant Minimum Air Flow Fraction will be ignored.",
    "   **   ~~~   ** Occurs in AirTerminal:SingleDuct:VAV:Reheat = BASEVAVBOX TRMLUNIT-5",
    "   ** Warning ** Since Damper Heating Action = REVERSE, input for Maximum Flow Fraction During Reheat will be ignored.",
    "   **   ~~~   ** Occurs in AirTerminal:SingleDuct:VAV:Reheat = BASEVAVBOX TRMLUNIT-5",
    "   ** Warning ** Since Zone Minimum Air Flow Input Method = FIXEDFLOWRATE, input for Constant Minimum Air Flow Fraction will be ignored.",
    "   **   ~~~   ** Occurs in AirTerminal:SingleDuct:VAV:Reheat = BASEVAVBOX TRMLUNIT-10",
    "   ** Warning ** Since Damper Heating Action = REVERSE, input for Maximum Flow Fraction During Reheat will be ignored.",
    "   **   ~~~   ** Occurs in AirTerminal:SingleDuct:VAV:Reheat = BASEVAVBOX TRMLUNIT-10",
    "   ** Warning ** Since Zone Minimum Air Flow Input Method = FIXEDFLOWRATE, input for Constant Minimum Air Flow Fraction will be ignored.",
    "   **   ~~~   ** Occurs in AirTerminal:SingleDuct:VAV:Reheat = BASEVAVBOX TRMLUNIT-15",
    "   ** Warning ** Since Damper Heating Action = REVERSE, input for Maximum Flow Fraction During Reheat will be ignored.",
    "   **   ~~~   ** Occurs in AirTerminal:SingleDuct:VAV:Reheat = BASEVAVBOX TRMLUNIT-15",
    "   ** Warning ** Since Zone Minimum Air Flow Input Method = FIXEDFLOWRATE, input for Constant Minimum Air Flow Fraction will be ignored.",
    "   **   ~~~   ** Occurs in AirTerminal:SingleDuct:VAV:Reheat = BASEVAVBOX TRMLUNIT",
    "   ** Warning ** Since Damper Heating Action = REVERSE, input for Maximum Flow Fraction During Reheat will be ignored.",
    "   **   ~~~   ** Occurs in AirTerminal:SingleDuct:VAV:Reheat = BASEVAVBOX TRMLUNIT",
    "   ** Warning ** Since Zone Minimum Air Flow Input Method = FIXEDFLOWRATE, input for Constant Minimum Air Flow Fraction will be ignored.",
    "   **   ~~~   ** Occurs in AirTerminal:SingleDuct:VAV:Reheat = BASEVAVBOX TRMLUNIT-2",
    "   ** Warning ** Since Damper Heating Action = REVERSE, input for Maximum Flow Fraction During Reheat will be ignored.",
    "   **   ~~~   ** Occurs in AirTerminal:SingleDuct:VAV:Reheat = BASEVAVBOX TRMLUNIT-2",
    "   ** Warning ** Since Zone Minimum Air Flow Input Method = FIXEDFLOWRATE, input for Constant Minimum Air Flow Fraction will be ignored.",
    "   **   ~~~   ** Occurs in AirTerminal:SingleDuct:VAV:Reheat = BASEVAVBOX TRMLUNIT-3",
    "   ** Warning ** Since Damper Heating Action = REVERSE, input for Maximum Flow Fraction During Reheat will be ignored.",
    "   **   ~~~   ** Occurs in AirTerminal:SingleDuct:VAV:Reheat = BASEVAVBOX TRMLUNIT-3",
    "   ** Warning ** Since Zone Minimum Air Flow Input Method = FIXEDFLOWRATE, input for Constant Minimum Air Flow Fraction will be ignored.",
    "   **   ~~~   ** Occurs in AirTerminal:SingleDuct:VAV:Reheat = BASEVAVBOX TRMLUNIT-4",
    "   ** Warning ** Since Damper Heating Action = REVERSE, input for Maximum Flow Fraction During Reheat will be ignored.",
    "   **   ~~~   ** Occurs in AirTerminal:SingleDuct:VAV:Reheat = BASEVAVBOX TRMLUNIT-4",
    "   ** Warning ** Since Zone Minimum Air Flow Input Method = FIXEDFLOWRATE, input for Constant Minimum Air Flow Fraction will be ignored.",
    "   **   ~~~   ** Occurs in AirTerminal:SingleDuct:VAV:Reheat = BASEVAVBOX TRMLUNIT-6",
    "   ** Warning ** Since Damper Heating Action = REVERSE, input for Maximum Flow Fraction During Reheat will be ignored.",
    "   **   ~~~   ** Occurs in AirTerminal:SingleDuct:VAV:Reheat = BASEVAVBOX TRMLUNIT-6",
    "   ** Warning ** Since Zone Minimum Air Flow Input Method = FIXEDFLOWRATE, input for Constant Minimum Air Flow Fraction will be ignored.",
    "   **   ~~~   ** Occurs in AirTerminal:SingleDuct:VAV:Reheat = BASEVAVBOX TRMLUNIT-7",
    "   ** Warning ** Since Damper Heating Action = REVERSE, input for Maximum Flow Fraction During Reheat will be ignored.",
    "   **   ~~~   ** Occurs in AirTerminal:SingleDuct:VAV:Reheat = BASEVAVBOX TRMLUNIT-7",
    "   ** Warning ** Since Zone Minimum Air Flow Input Method = FIXEDFLOWRATE, input for Constant Minimum Air Flow Fraction will be ignored.",
    "   **   ~~~   ** Occurs in AirTerminal:SingleDuct:VAV:Reheat = BASEVAVBOX TRMLUNIT-8",
    "   ** Warning ** Since Damper Heating Action = REVERSE, input for Maximum Flow Fraction During Reheat will be ignored.",
    "   **   ~~~   ** Occurs in AirTerminal:SingleDuct:VAV:Reheat = BASEVAVBOX TRMLUNIT-8",
    "   ** Warning ** Since Zone Minimum Air Flow Input Method = FIXEDFLOWRATE, input for Constant Minimum Air Flow Fraction will be ignored.",
    "   **   ~~~   ** Occurs in AirTerminal:SingleDuct:VAV:Reheat = BASEVAVBOX TRMLUNIT-9",
    "   ** Warning ** Since Damper Heating Action = REVERSE, input for Maximum Flow Fraction During Reheat will be ignored.",
    "   **   ~~~   ** Occurs in AirTerminal:SingleDuct:VAV:Reheat = BASEVAVBOX TRMLUNIT-9",
    "   ** Warning ** Since Zone Minimum Air Flow Input Method = FIXEDFLOWRATE, input for Constant Minimum Air Flow Fraction will be ignored.",
    "   **   ~~~   ** Occurs in AirTerminal:SingleDuct:VAV:Reheat = BASEVAVBOX TRMLUNIT-11",
    "   ** Warning ** Since Damper Heating Action = REVERSE, input for Maximum Flow Fraction During Reheat will be ignored.",
    "   **   ~~~   ** Occurs in AirTerminal:SingleDuct:VAV:Reheat = BASEVAVBOX TRMLUNIT-11",
    "   ** Warning ** Since Zone Minimum Air Flow Input Method = FIXEDFLOWRATE, input for Constant Minimum Air Flow Fraction will be ignored.",
    "   **   ~~~   ** Occurs in AirTerminal:SingleDuct:VAV:Reheat = BASEVAVBOX TRMLUNIT-12",
    "   ** Warning ** Since Damper Heating Action = REVERSE, input for Maximum Flow Fraction During Reheat will be ignored.",
    "   **   ~~~   ** Occurs in AirTerminal:SingleDuct:VAV:Reheat = BASEVAVBOX TRMLUNIT-12",
    "   ** Warning ** Since Zone Minimum Air Flow Input Method = FIXEDFLOWRATE, input for Constant Minimum Air Flow Fraction will be ignored.",
    "   **   ~~~   ** Occurs in AirTerminal:SingleDuct:VAV:Reheat = BASEVAVBOX TRMLUNIT-13",
    "   ** Warning ** Since Damper Heating Action = REVERSE, input for Maximum Flow Fraction During Reheat will be ignored.",
    "   **   ~~~   ** Occurs in AirTerminal:SingleDuct:VAV:Reheat = BASEVAVBOX TRMLUNIT-13",
    "   ** Warning ** Since Zone Minimum Air Flow Input Method = FIXEDFLOWRATE, input for Constant Minimum Air Flow Fraction will be ignored.",
    "   **   ~~~   ** Occurs in AirTerminal:SingleDuct:VAV:Reheat = BASEVAVBOX TRMLUNIT-14",
    "   ** Warning ** Since Damper Heating Action = REVERSE, input for Maximum Flow Fraction During Reheat will be ignored.",
    "   **   ~~~   ** Occurs in AirTerminal:SingleDuct:VAV:Reheat = BASEVAVBOX TRMLUNIT-14",
    "   ************* Beginning Plant Sizing Calculations",
    "   ** Warning ** GetOAControllerInputs: Controller:MechanicalVentilation=\"BASESYS5 OACTRL MECH VENT CONTROLLER",
    "   **   ~~~   ** Cannot locate a matching DesignSpecification:ZoneAirDistribution object for Zone=\"CORE_BOTTOM THERMAL ZONE\".",
    "   **   ~~~   ** Using default zone air distribution effectiveness of 1.0 for heating and cooling.",
    "   ** Warning ** GetOAControllerInputs: Controller:MechanicalVentilation=\"BASESYS5 OACTRL MECH VENT CONTROLLER",
    "   **   ~~~   ** Cannot locate a matching DesignSpecification:ZoneAirDistribution object for Zone=\"PERIMETER_BOT_ZN_1 THERMAL ZONE\".",
    "   **   ~~~   ** Using default zone air distribution effectiveness of 1.0 for heating and cooling.",
    "   ** Warning ** GetOAControllerInputs: Controller:MechanicalVentilation=\"BASESYS5 OACTRL MECH VENT CONTROLLER",
    "   **   ~~~   ** Cannot locate a matching DesignSpecification:ZoneAirDistribution object for Zone=\"PERIMETER_BOT_ZN_2 THERMAL ZONE\".",
    "   **   ~~~   ** Using default zone air distribution effectiveness of 1.0 for heating and cooling.",
    "   ** Warning ** GetOAControllerInputs: Controller:MechanicalVentilation=\"BASESYS5 OACTRL MECH VENT CONTROLLER",
    "   **   ~~~   ** Cannot locate a matching DesignSpecification:ZoneAirDistribution object for Zone=\"PERIMETER_BOT_ZN_3 THERMAL ZONE\".",
    "   **   ~~~   ** Using default zone air distribution effectiveness of 1.0 for heating and cooling.",
    "   ** Warning ** GetOAControllerInputs: Controller:MechanicalVentilation=\"BASESYS5 OACTRL MECH VENT CONTROLLER",
    "   **   ~~~   ** Cannot locate a matching DesignSpecification:ZoneAirDistribution object for Zone=\"PERIMETER_BOT_ZN_4 THERMAL ZONE\".",
    "   **   ~~~   ** Using default zone air distribution effectiveness of 1.0 for heating and cooling.",
    "   ** Warning ** GetOAControllerInputs: Controller:MechanicalVentilation=\"BASESYS5 OACTRL-2 MECH VENT CONTROLLER",
    "   **   ~~~   ** Cannot locate a matching DesignSpecification:ZoneAirDistribution object for Zone=\"CORE_MID THERMAL ZONE\".",
    "   **   ~~~   ** Using default zone air distribution effectiveness of 1.0 for heating and cooling.",
    "   ** Warning ** GetOAControllerInputs: Controller:MechanicalVentilation=\"BASESYS5 OACTRL-2 MECH VENT CONTROLLER",
    "   **   ~~~   ** Cannot locate a matching DesignSpecification:ZoneAirDistribution object for Zone=\"PERIMETER_MID_ZN_1 THERMAL ZONE\".",
    "   **   ~~~   ** Using default zone air distribution effectiveness of 1.0 for heating and cooling.",
    "   ** Warning ** GetOAControllerInputs: Controller:MechanicalVentilation=\"BASESYS5 OACTRL-2 MECH VENT CONTROLLER",
    "   **   ~~~   ** Cannot locate a matching DesignSpecification:ZoneAirDistribution object for Zone=\"PERIMETER_MID_ZN_2 THERMAL ZONE\".",
    "   **   ~~~   ** Using default zone air distribution effectiveness of 1.0 for heating and cooling.",
    "   ** Warning ** GetOAControllerInputs: Controller:MechanicalVentilation=\"BASESYS5 OACTRL-2 MECH VENT CONTROLLER",
    "   **   ~~~   ** Cannot locate a matching DesignSpecification:ZoneAirDistribution object for Zone=\"PERIMETER_MID_ZN_3 THERMAL ZONE\".",
    "   **   ~~~   ** Using default zone air distribution effectiveness of 1.0 for heating and cooling.",
    "   ** Warning ** GetOAControllerInputs: Controller:MechanicalVentilation=\"BASESYS5 OACTRL-2 MECH VENT CONTROLLER",
    "   **   ~~~   ** Cannot locate a matching DesignSpecification:ZoneAirDistribution object for Zone=\"PERIMETER_MID_ZN_4 THERMAL ZONE\".",
    "   **   ~~~   ** Using default zone air distribution effectiveness of 1.0 for heating and cooling.",
    "   ** Warning ** GetOAControllerInputs: Controller:MechanicalVentilation=\"BASESYS5 OACTRL-3 MECH VENT CONTROLLER",
    "   **   ~~~   ** Cannot locate a matching DesignSpecification:ZoneAirDistribution object for Zone=\"CORE_TOP THERMAL ZONE\".",
    "   **   ~~~   ** Using default zone air distribution effectiveness of 1.0 for heating and cooling.",
    "   ** Warning ** GetOAControllerInputs: Controller:MechanicalVentilation=\"BASESYS5 OACTRL-3 MECH VENT CONTROLLER",
    "   **   ~~~   ** Cannot locate a matching DesignSpecification:ZoneAirDistribution object for Zone=\"PERIMETER_TOP_ZN_1 THERMAL ZONE\".",
    "   **   ~~~   ** Using default zone air distribution effectiveness of 1.0 for heating and cooling.",
    "   ** Warning ** GetOAControllerInputs: Controller:MechanicalVentilation=\"BASESYS5 OACTRL-3 MECH VENT CONTROLLER",
    "   **   ~~~   ** Cannot locate a matching DesignSpecification:ZoneAirDistribution object for Zone=\"PERIMETER_TOP_ZN_2 THERMAL ZONE\".",
    "   **   ~~~   ** Using default zone air distribution effectiveness of 1.0 for heating and cooling.",
    "   ** Warning ** GetOAControllerInputs: Controller:MechanicalVentilation=\"BASESYS5 OACTRL-3 MECH VENT CONTROLLER",
    "   **   ~~~   ** Cannot locate a matching DesignSpecification:ZoneAirDistribution object for Zone=\"PERIMETER_TOP_ZN_3 THERMAL ZONE\".",
    "   **   ~~~   ** Using default zone air distribution effectiveness of 1.0 for heating and cooling.",
    "   ** Warning ** GetOAControllerInputs: Controller:MechanicalVentilation=\"BASESYS5 OACTRL-3 MECH VENT CONTROLLER",
    "   **   ~~~   ** Cannot locate a matching DesignSpecification:ZoneAirDistribution object for Zone=\"PERIMETER_TOP_ZN_4 THERMAL ZONE\".",
    "   **   ~~~   ** Using default zone air distribution effectiveness of 1.0 for heating and cooling.",
    "   ** Warning ** Output:Meter: invalid Key Name=\"DISTRICTCOOLING:FACILITY\" - not found.",
    "   ** Warning ** Output:Meter: invalid Key Name=\"DISTRICTHEATING:FACILITY\" - not found.",
    "   ** Warning ** Output:Meter:MeterFileOnly: invalid Key Name=\"COAL:FACILITY\" - not found.",
    "   ** Warning ** Output:Meter:MeterFileOnly: invalid Key Name=\"COGENERATION:COAL\" - not found.",
    "   ** Warning ** Output:Meter:MeterFileOnly: invalid Key Name=\"COGENERATION:DISTRICTCOOLING\" - not found.",
    "   ** Warning ** Output:Meter:MeterFileOnly: invalid Key Name=\"COGENERATION:DISTRICTHEATING\" - not found.",
    "   ** Warning ** Output:Meter:MeterFileOnly: invalid Key Name=\"COGENERATION:ELECTRICITY\" - not found.",
    "   ** Warning ** Output:Meter:MeterFileOnly: invalid Key Name=\"COGENERATION:NATURALGAS\" - not found.",
    "   ** Warning ** Output:Meter:MeterFileOnly: invalid Key Name=\"COOLING:COAL\" - not found.",
    "   ** Warning ** Output:Meter:MeterFileOnly: invalid Key Name=\"COOLING:DISTRICTCOOLING\" - not found.",
    "   ** Warning ** Output:Meter:MeterFileOnly: invalid Key Name=\"COOLING:DISTRICTHEATING\" - not found.",
    "   ** Warning ** Output:Meter:MeterFileOnly: invalid Key Name=\"COOLING:NATURALGAS\" - not found.",
    "   ** Warning ** Output:Meter:MeterFileOnly: invalid Key Name=\"DISTRICTCOOLING:FACILITY\" - not found.",
    "   ** Warning ** Output:Meter:MeterFileOnly: invalid Key Name=\"DISTRICTHEATING:FACILITY\" - not found.",
    "   ** Warning ** Output:Meter:MeterFileOnly: invalid Key Name=\"EXTERIOREQUIPMENT:COAL\" - not found.",
    "   ** Warning ** Output:Meter:MeterFileOnly: invalid Key Name=\"EXTERIOREQUIPMENT:DISTRICTCOOLING\" - not found.",
    "   ** Warning ** Output:Meter:MeterFileOnly: invalid Key Name=\"EXTERIOREQUIPMENT:DISTRICTHEATING\" - not found.",
    "   ** Warning ** Output:Meter:MeterFileOnly: invalid Key Name=\"EXTERIOREQUIPMENT:ELECTRICITY\" - not found.",
    "   ** Warning ** Output:Meter:MeterFileOnly: invalid Key Name=\"EXTERIOREQUIPMENT:NATURALGAS\" - not found.",
    "   ** Warning ** Output:Meter:MeterFileOnly: invalid Key Name=\"EXTERIORLIGHTS:COAL\" - not found.",
    "   ** Warning ** Output:Meter:MeterFileOnly: invalid Key Name=\"EXTERIORLIGHTS:DISTRICTCOOLING\" - not found.",
    "   ** Warning ** Output:Meter:MeterFileOnly: invalid Key Name=\"EXTERIORLIGHTS:DISTRICTHEATING\" - not found.",
    "   ** Warning ** Output:Meter:MeterFileOnly: invalid Key Name=\"EXTERIORLIGHTS:ELECTRICITY\" - not found.",
    "   ** Warning ** Output:Meter:MeterFileOnly: invalid Key Name=\"EXTERIORLIGHTS:NATURALGAS\" - not found.",
    "   ** Warning ** Output:Meter:MeterFileOnly: invalid Key Name=\"FANS:COAL\" - not found.",
    "   ** Warning ** Output:Meter:MeterFileOnly: invalid Key Name=\"FANS:DISTRICTCOOLING\" - not found.",
    "   ** Warning ** Output:Meter:MeterFileOnly: invalid Key Name=\"FANS:DISTRICTHEATING\" - not found.",
    "   ** Warning ** Output:Meter:MeterFileOnly: invalid Key Name=\"FANS:NATURALGAS\" - not found.",
    "   ** Warning ** Output:Meter:MeterFileOnly: invalid Key Name=\"HEATING:COAL\" - not found.",
    "   ** Warning ** Output:Meter:MeterFileOnly: invalid Key Name=\"HEATING:DISTRICTCOOLING\" - not found.",
    "   ** Warning ** Output:Meter:MeterFileOnly: invalid Key Name=\"HEATING:DISTRICTHEATING\" - not found.",
    "   ** Warning ** Output:Meter:MeterFileOnly: invalid Key Name=\"HEATRECOVERY:COAL\" - not found.",
    "   ** Warning ** Output:Meter:MeterFileOnly: invalid Key Name=\"HEATRECOVERY:DISTRICTCOOLING\" - not found.",
    "   ** Warning ** Output:Meter:MeterFileOnly: invalid Key Name=\"HEATRECOVERY:DISTRICTHEATING\" - not found.",
    "   ** Warning ** Output:Meter:MeterFileOnly: invalid Key Name=\"HEATRECOVERY:ELECTRICITY\" - not found.",
    "   ** Warning ** Output:Meter:MeterFileOnly: invalid Key Name=\"HEATRECOVERY:NATURALGAS\" - not found.",
    "   ** Warning ** Output:Meter:MeterFileOnly: invalid Key Name=\"HEATREJECTION:COAL\" - not found.",
    "   ** Warning ** Output:Meter:MeterFileOnly: invalid Key Name=\"HEATREJECTION:DISTRICTCOOLING\" - not found.",
    "   ** Warning ** Output:Meter:MeterFileOnly: invalid Key Name=\"HEATREJECTION:DISTRICTHEATING\" - not found.",
    "   ** Warning ** Output:Meter:MeterFileOnly: invalid Key Name=\"HEATREJECTION:ELECTRICITY\" - not found.",
    "   ** Warning ** Output:Meter:MeterFileOnly: invalid Key Name=\"HEATREJECTION:NATURALGAS\" - not found.",
    "   ** Warning ** Output:Meter:MeterFileOnly: invalid Key Name=\"HUMIDIFIER:COAL\" - not found.",
    "   ** Warning ** Output:Meter:MeterFileOnly: invalid Key Name=\"HUMIDIFIER:DISTRICTCOOLING\" - not found.",
    "   ** Warning ** Output:Meter:MeterFileOnly: invalid Key Name=\"HUMIDIFIER:DISTRICTHEATING\" - not found.",
    "   ** Warning ** Output:Meter:MeterFileOnly: invalid Key Name=\"HUMIDIFIER:ELECTRICITY\" - not found.",
    "   ** Warning ** Output:Meter:MeterFileOnly: invalid Key Name=\"HUMIDIFIER:NATURALGAS\" - not found.",
    "   ** Warning ** Output:Meter:MeterFileOnly: invalid Key Name=\"INTERIOREQUIPMENT:COAL\" - not found.",
    "   ** Warning ** Output:Meter:MeterFileOnly: invalid Key Name=\"INTERIOREQUIPMENT:DISTRICTCOOLING\" - not found.",
    "   ** Warning ** Output:Meter:MeterFileOnly: invalid Key Name=\"INTERIOREQUIPMENT:DISTRICTHEATING\" - not found.",
    "   ** Warning ** Output:Meter:MeterFileOnly: invalid Key Name=\"INTERIOREQUIPMENT:NATURALGAS\" - not found.",
    "   ** Warning ** Output:Meter:MeterFileOnly: invalid Key Name=\"INTERIORLIGHTS:COAL\" - not found.",
    "   ** Warning ** Output:Meter:MeterFileOnly: invalid Key Name=\"INTERIORLIGHTS:DISTRICTCOOLING\" - not found.",
    "   ** Warning ** Output:Meter:MeterFileOnly: invalid Key Name=\"INTERIORLIGHTS:DISTRICTHEATING\" - not found.",
    "   ** Warning ** Output:Meter:MeterFileOnly: invalid Key Name=\"INTERIORLIGHTS:NATURALGAS\" - not found.",
    "   ** Warning ** Output:Meter:MeterFileOnly: invalid Key Name=\"INTERNAL TRANSPORT:INTERIOREQUIPMENT:ELECTRICITY\" - not found.",
    "   ** Warning ** Output:Meter:MeterFileOnly: invalid Key Name=\"NONCOMPLIANCELTG:INTERIORLIGHTS:ELECTRICITY\" - not found.",
    "   ** Warning ** Output:Meter:MeterFileOnly: invalid Key Name=\"NONREG LTG:EXTERIORLIGHTS:ELECTRICITY\" - not found.",
    "   ** Warning ** Output:Meter:MeterFileOnly: invalid Key Name=\"PROCESS:EXTERIOREQUIPMENT:ELECTRICITY\" - not found.",
    "   ** Warning ** Output:Meter:MeterFileOnly: invalid Key Name=\"PROCESS:EXTERIOREQUIPMENT:NATURALGAS\" - not found.",
    "   ** Warning ** Output:Meter:MeterFileOnly: invalid Key Name=\"PROCESS:INTERIOREQUIPMENT:ELECTRICITY\" - not found.",
    "   ** Warning ** Output:Meter:MeterFileOnly: invalid Key Name=\"PROCESS:INTERIOREQUIPMENT:NATURALGAS\" - not found.",
    "   ** Warning ** Output:Meter:MeterFileOnly: invalid Key Name=\"PUMPS:COAL\" - not found.",
    "   ** Warning ** Output:Meter:MeterFileOnly: invalid Key Name=\"PUMPS:DISTRICTCOOLING\" - not found.",
    "   ** Warning ** Output:Meter:MeterFileOnly: invalid Key Name=\"PUMPS:DISTRICTHEATING\" - not found.",
    "   ** Warning ** Output:Meter:MeterFileOnly: invalid Key Name=\"PUMPS:NATURALGAS\" - not found.",
    "   ** Warning ** Output:Meter:MeterFileOnly: invalid Key Name=\"RECEPTACLE:EXTERIOREQUIPMENT:ELECTRICITY\" - not found.",
    "   ** Warning ** Output:Meter:MeterFileOnly: invalid Key Name=\"RECEPTACLE:EXTERIOREQUIPMENT:NATURALGAS\" - not found.",
    "   ** Warning ** Output:Meter:MeterFileOnly: invalid Key Name=\"RECEPTACLE:INTERIOREQUIPMENT:NATURALGAS\" - not found.",
    "   ** Warning ** Output:Meter:MeterFileOnly: invalid Key Name=\"REFRIG:EXTERIOREQUIPMENT:ELECTRICITY\" - not found.",
    "   ** Warning ** Output:Meter:MeterFileOnly: invalid Key Name=\"REFRIG:INTERIOREQUIPMENT:ELECTRICITY\" - not found.",
    "   ** Warning ** Output:Meter:MeterFileOnly: invalid Key Name=\"REFRIGERATION:COAL\" - not found.",
    "   ** Warning ** Output:Meter:MeterFileOnly: invalid Key Name=\"REFRIGERATION:DISTRICTCOOLING\" - not found.",
    "   ** Warning ** Output:Meter:MeterFileOnly: invalid Key Name=\"REFRIGERATION:DISTRICTHEATING\" - not found.",
    "   ** Warning ** Output:Meter:MeterFileOnly: invalid Key Name=\"REFRIGERATION:ELECTRICITY\" - not found.",
    "   ** Warning ** Output:Meter:MeterFileOnly: invalid Key Name=\"REFRIGERATION:NATURALGAS\" - not found.",
    "   ** Warning ** Output:Meter:MeterFileOnly: invalid Key Name=\"REG LTG:EXTERIORLIGHTS:ELECTRICITY\" - not found.",
    "   ** Warning ** Output:Meter:MeterFileOnly: invalid Key Name=\"WATERSYSTEMS:COAL\" - not found.",
    "   ** Warning ** Output:Meter:MeterFileOnly: invalid Key Name=\"WATERSYSTEMS:DISTRICTCOOLING\" - not found.",
    "   ** Warning ** Output:Meter:MeterFileOnly: invalid Key Name=\"WATERSYSTEMS:DISTRICTHEATING\" - not found.",
    "   ** Warning ** Output:Meter:MeterFileOnly: invalid Key Name=\"WATERSYSTEMS:ELECTRICITY\" - not found.",
    "   ** Warning ** Output:Meter:MeterFileOnly: invalid Key Name=\"WATERSYSTEMS:NATURALGAS\" - not found.",
    "   ** Warning ** Output:Meter:MeterFileOnly requested for \"Electricity:Facility\" (TimeStep), already on \"Output:Meter\". Will report to both eplusout.eso and eplusout.mtr",
    "   ************* Testing Individual Branch Integrity",
    "   ************* All Branches passed integrity testing",
    "   ************* Testing Individual Supply Air Path Integrity",
    "   ************* All Supply Air Paths passed integrity testing",
    "   ************* Testing Individual Return Air Path Integrity",
    "   ************* All Return Air Paths passed integrity testing",
    "   ************* No node connection errors were found.",
    "   ************* Beginning Simulation",
    "   ** Severe  ** CheckWarmupConvergence: Loads Initialization, Zone=\"CORE_BOTTOM THERMAL ZONE\" did not converge after 50 warmup days.",
    "   **   ~~~   ** See Warmup Convergence Information in .eio file for details.",
    "   **   ~~~   ** ...Environment(RunPeriod)=\"LOS-ANGELES-INTL_722950_CZ2010\"",
    "   **   ~~~   ** ..Max Temp Comparison = 7.10E-004 vs Temperature Convergence Tolerance=0.40 - Pass Convergence",
    "   **   ~~~   ** ..Min Temp Comparison = 1.00E-003 vs Temperature Convergence Tolerance=0.40 - Pass Convergence",
    "   **   ~~~   ** ..Max Heat Load Comparison = 0.4494 vs Loads Convergence Tolerance=4.00E-002 - Fail Convergence",
    "   **   ~~~   ** ..Max Cool Load Comparison = 12.2344 vs Loads Convergence Tolerance=4.00E-002 - Pass Convergence",
    "   ** Severe  ** CheckWarmupConvergence: Loads Initialization, Zone=\"CORE_MID THERMAL ZONE\" did not converge after 50 warmup days.",
    "   **   ~~~   ** ...Environment(RunPeriod)=\"LOS-ANGELES-INTL_722950_CZ2010\"",
    "   **   ~~~   ** ..Max Temp Comparison = 1.98E-004 vs Temperature Convergence Tolerance=0.40 - Pass Convergence",
    "   **   ~~~   ** ..Min Temp Comparison = 1.12E-003 vs Temperature Convergence Tolerance=0.40 - Pass Convergence",
    "   **   ~~~   ** ..Max Heat Load Comparison = 4.1728E-002 vs Loads Convergence Tolerance=4.00E-002 - Fail Convergence",
    "   **   ~~~   ** ..Max Cool Load Comparison = 30.4520 vs Loads Convergence Tolerance=4.00E-002 - Pass Convergence",
    "   ** Severe  ** CheckWarmupConvergence: Loads Initialization, Zone=\"CORE_TOP THERMAL ZONE\" did not converge after 50 warmup days.",
    "   **   ~~~   ** ...Environment(RunPeriod)=\"LOS-ANGELES-INTL_722950_CZ2010\"",
    "   **   ~~~   ** ..Max Temp Comparison = 5.03E-004 vs Temperature Convergence Tolerance=0.40 - Pass Convergence",
    "   **   ~~~   ** ..Min Temp Comparison = 8.07E-004 vs Temperature Convergence Tolerance=0.40 - Pass Convergence",
    "   **   ~~~   ** ..Max Heat Load Comparison = 0.2582 vs Loads Convergence Tolerance=4.00E-002 - Fail Convergence",
    "   **   ~~~   ** ..Max Cool Load Comparison = 15.3441 vs Loads Convergence Tolerance=4.00E-002 - Pass Convergence",
    "   ** Severe  ** CheckWarmupConvergence: Loads Initialization, Zone=\"PERIMETER_BOT_ZN_1 THERMAL ZONE\" did not converge after 50 warmup days.",
    "   **   ~~~   ** ...Environment(RunPeriod)=\"LOS-ANGELES-INTL_722950_CZ2010\"",
    "   **   ~~~   ** ..Max Temp Comparison = 2.56E-002 vs Temperature Convergence Tolerance=0.40 - Pass Convergence",
    "   **   ~~~   ** ..Min Temp Comparison = 7.80E-004 vs Temperature Convergence Tolerance=0.40 - Pass Convergence",
    "   **   ~~~   ** ..Max Heat Load Comparison = 0.6270 vs Loads Convergence Tolerance=4.00E-002 - Fail Convergence",
    "   **   ~~~   ** ..Max Cool Load Comparison = 1.7332E-003 vs Loads Convergence Tolerance=4.00E-002 - Pass Convergence",
    "   ** Severe  ** CheckWarmupConvergence: Loads Initialization, Zone=\"PERIMETER_BOT_ZN_2 THERMAL ZONE\" did not converge after 50 warmup days.",
    "   **   ~~~   ** ...Environment(RunPeriod)=\"LOS-ANGELES-INTL_722950_CZ2010\"",
    "   **   ~~~   ** ..Max Temp Comparison = 4.10E-004 vs Temperature Convergence Tolerance=0.40 - Pass Convergence",
    "   **   ~~~   ** ..Min Temp Comparison = 5.05E-004 vs Temperature Convergence Tolerance=0.40 - Pass Convergence",
    "   **   ~~~   ** ..Max Heat Load Comparison = 0.5136 vs Loads Convergence Tolerance=4.00E-002 - Fail Convergence",
    "   **   ~~~   ** ..Max Cool Load Comparison = 0.4394 vs Loads Convergence Tolerance=4.00E-002 - Fail Convergence",
    "   ** Severe  ** CheckWarmupConvergence: Loads Initialization, Zone=\"PERIMETER_BOT_ZN_3 THERMAL ZONE\" did not converge after 50 warmup days.",
    "   **   ~~~   ** ...Environment(RunPeriod)=\"LOS-ANGELES-INTL_722950_CZ2010\"",
    "   **   ~~~   ** ..Max Temp Comparison = 2.38E-004 vs Temperature Convergence Tolerance=0.40 - Pass Convergence",
    "   **   ~~~   ** ..Min Temp Comparison = 6.89E-004 vs Temperature Convergence Tolerance=0.40 - Pass Convergence",
    "   **   ~~~   ** ..Max Heat Load Comparison = 0.1407 vs Loads Convergence Tolerance=4.00E-002 - Fail Convergence",
    "   **   ~~~   ** ..Max Cool Load Comparison = 0.0000 vs Loads Convergence Tolerance=4.00E-002 - Pass Convergence",
    "   ** Severe  ** CheckWarmupConvergence: Loads Initialization, Zone=\"PERIMETER_BOT_ZN_4 THERMAL ZONE\" did not converge after 50 warmup days.",
    "   **   ~~~   ** ...Environment(RunPeriod)=\"LOS-ANGELES-INTL_722950_CZ2010\"",
    "   **   ~~~   ** ..Max Temp Comparison = 2.73E-004 vs Temperature Convergence Tolerance=0.40 - Pass Convergence",
    "   **   ~~~   ** ..Min Temp Comparison = 5.55E-004 vs Temperature Convergence Tolerance=0.40 - Pass Convergence",
    "   **   ~~~   ** ..Max Heat Load Comparison = 0.4654 vs Loads Convergence Tolerance=4.00E-002 - Fail Convergence",
    "   **   ~~~   ** ..Max Cool Load Comparison = 0.0000 vs Loads Convergence Tolerance=4.00E-002 - Pass Convergence",
    "   ** Severe  ** CheckWarmupConvergence: Loads Initialization, Zone=\"PERIMETER_MID_ZN_1 THERMAL ZONE\" did not converge after 50 warmup days.",
    "   **   ~~~   ** ...Environment(RunPeriod)=\"LOS-ANGELES-INTL_722950_CZ2010\"",
    "   **   ~~~   ** ..Max Temp Comparison = 3.05E-003 vs Temperature Convergence Tolerance=0.40 - Pass Convergence",
    "   **   ~~~   ** ..Min Temp Comparison = 8.14E-004 vs Temperature Convergence Tolerance=0.40 - Pass Convergence",
    "   **   ~~~   ** ..Max Heat Load Comparison = 0.3314 vs Loads Convergence Tolerance=4.00E-002 - Fail Convergence",
    "   **   ~~~   ** ..Max Cool Load Comparison = 4.2582E-004 vs Loads Convergence Tolerance=4.00E-002 - Pass Convergence",
    "   ** Severe  ** CheckWarmupConvergence: Loads Initialization, Zone=\"PERIMETER_MID_ZN_2 THERMAL ZONE\" did not converge after 50 warmup days.",
    "   **   ~~~   ** ...Environment(RunPeriod)=\"LOS-ANGELES-INTL_722950_CZ2010\"",
    "   **   ~~~   ** ..Max Temp Comparison = 4.67E-005 vs Temperature Convergence Tolerance=0.40 - Pass Convergence",
    "   **   ~~~   ** ..Min Temp Comparison = 4.69E-005 vs Temperature Convergence Tolerance=0.40 - Pass Convergence",
    "   **   ~~~   ** ..Max Heat Load Comparison = 0.1676 vs Loads Convergence Tolerance=4.00E-002 - Fail Convergence",
    "   **   ~~~   ** ..Max Cool Load Comparison = 1.1471E-002 vs Loads Convergence Tolerance=4.00E-002 - Pass Convergence",
    "   ** Severe  ** CheckWarmupConvergence: Loads Initialization, Zone=\"PERIMETER_MID_ZN_4 THERMAL ZONE\" did not converge after 50 warmup days.",
    "   **   ~~~   ** ...Environment(RunPeriod)=\"LOS-ANGELES-INTL_722950_CZ2010\"",
    "   **   ~~~   ** ..Max Temp Comparison = 6.65E-004 vs Temperature Convergence Tolerance=0.40 - Pass Convergence",
    "   **   ~~~   ** ..Min Temp Comparison = 8.36E-004 vs Temperature Convergence Tolerance=0.40 - Pass Convergence",
    "   **   ~~~   ** ..Max Heat Load Comparison = 7.7398E-002 vs Loads Convergence Tolerance=4.00E-002 - Fail Convergence",
    "   **   ~~~   ** ..Max Cool Load Comparison = 0.0000 vs Loads Convergence Tolerance=4.00E-002 - Pass Convergence",
    "   ** Severe  ** CheckWarmupConvergence: Loads Initialization, Zone=\"PERIMETER_TOP_ZN_1 THERMAL ZONE\" did not converge after 50 warmup days.",
    "   **   ~~~   ** ...Environment(RunPeriod)=\"LOS-ANGELES-INTL_722950_CZ2010\"",
    "   **   ~~~   ** ..Max Temp Comparison = 1.23E-002 vs Temperature Convergence Tolerance=0.40 - Pass Convergence",
    "   **   ~~~   ** ..Min Temp Comparison = 9.42E-004 vs Temperature Convergence Tolerance=0.40 - Pass Convergence",
    "   **   ~~~   ** ..Max Heat Load Comparison = 0.2960 vs Loads Convergence Tolerance=4.00E-002 - Fail Convergence",
    "   **   ~~~   ** ..Max Cool Load Comparison = 1.3837E-002 vs Loads Convergence Tolerance=4.00E-002 - Pass Convergence",
    "   ** Severe  ** CheckWarmupConvergence: Loads Initialization, Zone=\"PERIMETER_TOP_ZN_2 THERMAL ZONE\" did not converge after 50 warmup days.",
    "   **   ~~~   ** ...Environment(RunPeriod)=\"LOS-ANGELES-INTL_722950_CZ2010\"",
    "   **   ~~~   ** ..Max Temp Comparison = 1.83E-004 vs Temperature Convergence Tolerance=0.40 - Pass Convergence",
    "   **   ~~~   ** ..Min Temp Comparison = 5.36E-004 vs Temperature Convergence Tolerance=0.40 - Pass Convergence",
    "   **   ~~~   ** ..Max Heat Load Comparison = 0.3995 vs Loads Convergence Tolerance=4.00E-002 - Fail Convergence",
    "   **   ~~~   ** ..Max Cool Load Comparison = 0.8223 vs Loads Convergence Tolerance=4.00E-002 - Fail Convergence",
    "   ** Severe  ** CheckWarmupConvergence: Loads Initialization, Zone=\"PERIMETER_TOP_ZN_3 THERMAL ZONE\" did not converge after 50 warmup days.",
    "   **   ~~~   ** ...Environment(RunPeriod)=\"LOS-ANGELES-INTL_722950_CZ2010\"",
    "   **   ~~~   ** ..Max Temp Comparison = 2.00E-003 vs Temperature Convergence Tolerance=0.40 - Pass Convergence",
    "   **   ~~~   ** ..Min Temp Comparison = 7.85E-004 vs Temperature Convergence Tolerance=0.40 - Pass Convergence",
    "   **   ~~~   ** ..Max Heat Load Comparison = 0.3486 vs Loads Convergence Tolerance=4.00E-002 - Fail Convergence",
    "   **   ~~~   ** ..Max Cool Load Comparison = 0.0000 vs Loads Convergence Tolerance=4.00E-002 - Pass Convergence",
    "   ** Severe  ** CheckWarmupConvergence: Loads Initialization, Zone=\"PERIMETER_TOP_ZN_4 THERMAL ZONE\" did not converge after 50 warmup days.",
    "   **   ~~~   ** ...Environment(RunPeriod)=\"LOS-ANGELES-INTL_722950_CZ2010\"",
    "   **   ~~~   ** ..Max Temp Comparison = 2.39E-003 vs Temperature Convergence Tolerance=0.40 - Pass Convergence",
    "   **   ~~~   ** ..Min Temp Comparison = 9.18E-004 vs Temperature Convergence Tolerance=0.40 - Pass Convergence",
    "   **   ~~~   ** ..Max Heat Load Comparison = 0.3534 vs Loads Convergence Tolerance=4.00E-002 - Fail Convergence",
    "   **   ~~~   ** ..Max Cool Load Comparison = 0.0000 vs Loads Convergence Tolerance=4.00E-002 - Pass Convergence",
    "   ** Warning ** SimHVAC: Maximum iterations (20) exceeded for all HVAC loops, at LOS-ANGELES-INTL_722950_CZ2010, 01/01 00:00 - 00:15",
    "   **   ~~~   ** The solution for one or more plant systems did not appear to converge",
    "   **   ~~~   ** ...use Output:Diagnostics,DisplayExtraWarnings; to show more details on each max iteration exceeded.",
    "   ** Warning ** In Output:Table:Monthly 'BUILDING ENERGY PERFORMANCE - ELECTRICITY' invalid Variable or Meter Name 'EXTERIORLIGHTS:ELECTRICITY'",
    "   ** Warning ** In Output:Table:Monthly 'BUILDING ENERGY PERFORMANCE - ELECTRICITY' invalid Variable or Meter Name 'EXTERIOREQUIPMENT:ELECTRICITY'",
    "   ** Warning ** In Output:Table:Monthly 'BUILDING ENERGY PERFORMANCE - ELECTRICITY' invalid Variable or Meter Name 'HEATREJECTION:ELECTRICITY'",
    "   ** Warning ** In Output:Table:Monthly 'BUILDING ENERGY PERFORMANCE - ELECTRICITY' invalid Variable or Meter Name 'HUMIDIFIER:ELECTRICITY'",
    "   ** Warning ** In Output:Table:Monthly 'BUILDING ENERGY PERFORMANCE - ELECTRICITY' invalid Variable or Meter Name 'HEATRECOVERY:ELECTRICITY'",
    "   ** Warning ** In Output:Table:Monthly 'BUILDING ENERGY PERFORMANCE - ELECTRICITY' invalid Variable or Meter Name 'WATERSYSTEMS:ELECTRICITY'",
    "   ** Warning ** In Output:Table:Monthly 'BUILDING ENERGY PERFORMANCE - ELECTRICITY' invalid Variable or Meter Name 'COGENERATION:ELECTRICITY'",
    "   ** Warning ** In Output:Table:Monthly 'BUILDING ENERGY PERFORMANCE - ELECTRICITY' invalid Variable or Meter Name 'REFRIGERATION:ELECTRICITY'",
    "   ** Warning ** In Output:Table:Monthly 'BUILDING ENERGY PERFORMANCE - NATURAL GAS' invalid Variable or Meter Name 'INTERIOREQUIPMENT:NATURALGAS'",
    "   ** Warning ** In Output:Table:Monthly 'BUILDING ENERGY PERFORMANCE - NATURAL GAS' invalid Variable or Meter Name 'EXTERIOREQUIPMENT:NATURALGAS'",
    "   ** Warning ** In Output:Table:Monthly 'BUILDING ENERGY PERFORMANCE - NATURAL GAS' invalid Variable or Meter Name 'COOLING:NATURALGAS'",
    "   ** Warning ** In Output:Table:Monthly 'BUILDING ENERGY PERFORMANCE - NATURAL GAS' invalid Variable or Meter Name 'WATERSYSTEMS:NATURALGAS'",
    "   ** Warning ** In Output:Table:Monthly 'BUILDING ENERGY PERFORMANCE - NATURAL GAS' invalid Variable or Meter Name 'COGENERATION:NATURALGAS'",
    "   ** Warning ** In Output:Table:Monthly 'BUILDING ENERGY PERFORMANCE - DISTRICT HEATING' invalid Variable or Meter Name 'INTERIORLIGHTS:DISTRICTHEATING'",
    "   ** Warning ** In Output:Table:Monthly 'BUILDING ENERGY PERFORMANCE - DISTRICT HEATING' invalid Variable or Meter Name 'EXTERIORLIGHTS:DISTRICTHEATING'",
    "   ** Warning ** In Output:Table:Monthly 'BUILDING ENERGY PERFORMANCE - DISTRICT HEATING' invalid Variable or Meter Name 'INTERIOREQUIPMENT:DISTRICTHEATING'",
    "   ** Warning ** In Output:Table:Monthly 'BUILDING ENERGY PERFORMANCE - DISTRICT HEATING' invalid Variable or Meter Name 'EXTERIOREQUIPMENT:DISTRICTHEATING'",
    "   ** Warning ** In Output:Table:Monthly 'BUILDING ENERGY PERFORMANCE - DISTRICT HEATING' invalid Variable or Meter Name 'FANS:DISTRICTHEATING'",
    "   ** Warning ** In Output:Table:Monthly 'BUILDING ENERGY PERFORMANCE - DISTRICT HEATING' invalid Variable or Meter Name 'PUMPS:DISTRICTHEATING'",
    "   ** Warning ** In Output:Table:Monthly 'BUILDING ENERGY PERFORMANCE - DISTRICT HEATING' invalid Variable or Meter Name 'HEATING:DISTRICTHEATING'",
    "   ** Warning ** In Output:Table:Monthly 'BUILDING ENERGY PERFORMANCE - DISTRICT HEATING' invalid Variable or Meter Name 'COOLING:DISTRICTHEATING'",
    "   ** Warning ** In Output:Table:Monthly 'BUILDING ENERGY PERFORMANCE - DISTRICT HEATING' invalid Variable or Meter Name 'HEATREJECTION:DISTRICTHEATING'",
    "   ** Warning ** In Output:Table:Monthly 'BUILDING ENERGY PERFORMANCE - DISTRICT HEATING' invalid Variable or Meter Name 'HUMIDIFIER:DISTRICTHEATING'",
    "   ** Warning ** In Output:Table:Monthly 'BUILDING ENERGY PERFORMANCE - DISTRICT HEATING' invalid Variable or Meter Name 'HEATRECOVERY:DISTRICTHEATING'",
    "   ** Warning ** In Output:Table:Monthly 'BUILDING ENERGY PERFORMANCE - DISTRICT HEATING' invalid Variable or Meter Name 'WATERSYSTEMS:DISTRICTHEATING'",
    "   ** Warning ** In Output:Table:Monthly 'BUILDING ENERGY PERFORMANCE - DISTRICT HEATING' invalid Variable or Meter Name 'COGENERATION:DISTRICTHEATING'",
    "   ** Warning ** In Output:Table:Monthly 'BUILDING ENERGY PERFORMANCE - DISTRICT COOLING' invalid Variable or Meter Name 'INTERIORLIGHTS:DISTRICTCOOLING'",
    "   ** Warning ** In Output:Table:Monthly 'BUILDING ENERGY PERFORMANCE - DISTRICT COOLING' invalid Variable or Meter Name 'EXTERIORLIGHTS:DISTRICTCOOLING'",
    "   ** Warning ** In Output:Table:Monthly 'BUILDING ENERGY PERFORMANCE - DISTRICT COOLING' invalid Variable or Meter Name 'INTERIOREQUIPMENT:DISTRICTCOOLING'",
    "   ** Warning ** In Output:Table:Monthly 'BUILDING ENERGY PERFORMANCE - DISTRICT COOLING' invalid Variable or Meter Name 'EXTERIOREQUIPMENT:DISTRICTCOOLING'",
    "   ** Warning ** In Output:Table:Monthly 'BUILDING ENERGY PERFORMANCE - DISTRICT COOLING' invalid Variable or Meter Name 'FANS:DISTRICTCOOLING'",
    "   ** Warning ** In Output:Table:Monthly 'BUILDING ENERGY PERFORMANCE - DISTRICT COOLING' invalid Variable or Meter Name 'PUMPS:DISTRICTCOOLING'",
    "   ** Warning ** In Output:Table:Monthly 'BUILDING ENERGY PERFORMANCE - DISTRICT COOLING' invalid Variable or Meter Name 'HEATING:DISTRICTCOOLING'",
    "   ** Warning ** In Output:Table:Monthly 'BUILDING ENERGY PERFORMANCE - DISTRICT COOLING' invalid Variable or Meter Name 'COOLING:DISTRICTCOOLING'",
    "   ** Warning ** In Output:Table:Monthly 'BUILDING ENERGY PERFORMANCE - DISTRICT COOLING' invalid Variable or Meter Name 'HEATREJECTION:DISTRICTCOOLING'",
    "   ** Warning ** In Output:Table:Monthly 'BUILDING ENERGY PERFORMANCE - DISTRICT COOLING' invalid Variable or Meter Name 'HUMIDIFIER:DISTRICTCOOLING'",
    "   ** Warning ** In Output:Table:Monthly 'BUILDING ENERGY PERFORMANCE - DISTRICT COOLING' invalid Variable or Meter Name 'HEATRECOVERY:DISTRICTCOOLING'",
    "   ** Warning ** In Output:Table:Monthly 'BUILDING ENERGY PERFORMANCE - DISTRICT COOLING' invalid Variable or Meter Name 'WATERSYSTEMS:DISTRICTCOOLING'",
    "   ** Warning ** In Output:Table:Monthly 'BUILDING ENERGY PERFORMANCE - DISTRICT COOLING' invalid Variable or Meter Name 'COGENERATION:DISTRICTCOOLING'",
    "   ** Warning ** In Output:Table:Monthly 'BUILDING ENERGY PERFORMANCE - ELECTRICITY PEAK DEMAND' invalid Variable or Meter Name 'EXTERIORLIGHTS:ELECTRICITY'",
    "   ** Warning ** In Output:Table:Monthly 'BUILDING ENERGY PERFORMANCE - ELECTRICITY PEAK DEMAND' invalid Variable or Meter Name 'EXTERIOREQUIPMENT:ELECTRICITY'",
    "   ** Warning ** In Output:Table:Monthly 'BUILDING ENERGY PERFORMANCE - ELECTRICITY PEAK DEMAND' invalid Variable or Meter Name 'HEATREJECTION:ELECTRICITY'",
    "   ** Warning ** In Output:Table:Monthly 'BUILDING ENERGY PERFORMANCE - ELECTRICITY PEAK DEMAND' invalid Variable or Meter Name 'HUMIDIFIER:ELECTRICITY'",
    "   ** Warning ** In Output:Table:Monthly 'BUILDING ENERGY PERFORMANCE - ELECTRICITY PEAK DEMAND' invalid Variable or Meter Name 'HEATRECOVERY:ELECTRICITY'",
    "   ** Warning ** In Output:Table:Monthly 'BUILDING ENERGY PERFORMANCE - ELECTRICITY PEAK DEMAND' invalid Variable or Meter Name 'WATERSYSTEMS:ELECTRICITY'",
    "   ** Warning ** In Output:Table:Monthly 'BUILDING ENERGY PERFORMANCE - ELECTRICITY PEAK DEMAND' invalid Variable or Meter Name 'COGENERATION:ELECTRICITY'",
    "   ** Warning ** In Output:Table:Monthly 'BUILDING ENERGY PERFORMANCE - NATURAL GAS PEAK DEMAND' invalid Variable or Meter Name 'INTERIOREQUIPMENT:NATURALGAS'",
    "   ** Warning ** In Output:Table:Monthly 'BUILDING ENERGY PERFORMANCE - NATURAL GAS PEAK DEMAND' invalid Variable or Meter Name 'EXTERIOREQUIPMENT:NATURALGAS'",
    "   ** Warning ** In Output:Table:Monthly 'BUILDING ENERGY PERFORMANCE - NATURAL GAS PEAK DEMAND' invalid Variable or Meter Name 'COOLING:NATURALGAS'",
    "   ** Warning ** In Output:Table:Monthly 'BUILDING ENERGY PERFORMANCE - NATURAL GAS PEAK DEMAND' invalid Variable or Meter Name 'WATERSYSTEMS:NATURALGAS'",
    "   ** Warning ** In Output:Table:Monthly 'BUILDING ENERGY PERFORMANCE - NATURAL GAS PEAK DEMAND' invalid Variable or Meter Name 'COGENERATION:NATURALGAS'",
    "   ** Warning ** In Output:Table:Monthly 'BUILDING ENERGY PERFORMANCE - DISTRICT HEATING PEAK DEMAND' invalid Variable or Meter Name 'DISTRICTHEATING:FACILITY'",
    "   ** Warning ** In Output:Table:Monthly 'BUILDING ENERGY PERFORMANCE - DISTRICT HEATING PEAK DEMAND' invalid Variable or Meter Name 'INTERIORLIGHTS:DISTRICTHEATING'",
    "   ** Warning ** In Output:Table:Monthly 'BUILDING ENERGY PERFORMANCE - DISTRICT HEATING PEAK DEMAND' invalid Variable or Meter Name 'EXTERIORLIGHTS:DISTRICTHEATING'",
    "   ** Warning ** In Output:Table:Monthly 'BUILDING ENERGY PERFORMANCE - DISTRICT HEATING PEAK DEMAND' invalid Variable or Meter Name 'INTERIOREQUIPMENT:DISTRICTHEATING'",
    "   ** Warning ** In Output:Table:Monthly 'BUILDING ENERGY PERFORMANCE - DISTRICT HEATING PEAK DEMAND' invalid Variable or Meter Name 'EXTERIOREQUIPMENT:DISTRICTHEATING'",
    "   ** Warning ** In Output:Table:Monthly 'BUILDING ENERGY PERFORMANCE - DISTRICT HEATING PEAK DEMAND' invalid Variable or Meter Name 'FANS:DISTRICTHEATING'",
    "   ** Warning ** In Output:Table:Monthly 'BUILDING ENERGY PERFORMANCE - DISTRICT HEATING PEAK DEMAND' invalid Variable or Meter Name 'PUMPS:DISTRICTHEATING'",
    "   ** Warning ** In Output:Table:Monthly 'BUILDING ENERGY PERFORMANCE - DISTRICT HEATING PEAK DEMAND' invalid Variable or Meter Name 'HEATING:DISTRICTHEATING'",
    "   ** Warning ** In Output:Table:Monthly 'BUILDING ENERGY PERFORMANCE - DISTRICT HEATING PEAK DEMAND' invalid Variable or Meter Name 'COOLING:DISTRICTHEATING'",
    "   ** Warning ** In Output:Table:Monthly 'BUILDING ENERGY PERFORMANCE - DISTRICT HEATING PEAK DEMAND' invalid Variable or Meter Name 'HEATREJECTION:DISTRICTHEATING'",
    "   ** Warning ** In Output:Table:Monthly 'BUILDING ENERGY PERFORMANCE - DISTRICT HEATING PEAK DEMAND' invalid Variable or Meter Name 'HUMIDIFIER:DISTRICTHEATING'",
    "   ** Warning ** In Output:Table:Monthly 'BUILDING ENERGY PERFORMANCE - DISTRICT HEATING PEAK DEMAND' invalid Variable or Meter Name 'HEATRECOVERY:DISTRICTHEATING'",
    "   ** Warning ** In Output:Table:Monthly 'BUILDING ENERGY PERFORMANCE - DISTRICT HEATING PEAK DEMAND' invalid Variable or Meter Name 'WATERSYSTEMS:DISTRICTHEATING'",
    "   ** Warning ** In Output:Table:Monthly 'BUILDING ENERGY PERFORMANCE - DISTRICT HEATING PEAK DEMAND' invalid Variable or Meter Name 'COGENERATION:DISTRICTHEATING'",
    "   ** Warning ** In Output:Table:Monthly 'BUILDING ENERGY PERFORMANCE - DISTRICT COOLING PEAK DEMAND' invalid Variable or Meter Name 'DISTRICTCOOLING:FACILITY'",
    "   ** Warning ** In Output:Table:Monthly 'BUILDING ENERGY PERFORMANCE - DISTRICT COOLING PEAK DEMAND' invalid Variable or Meter Name 'INTERIORLIGHTS:DISTRICTCOOLING'",
    "   ** Warning ** In Output:Table:Monthly 'BUILDING ENERGY PERFORMANCE - DISTRICT COOLING PEAK DEMAND' invalid Variable or Meter Name 'EXTERIORLIGHTS:DISTRICTCOOLING'",
    "   ** Warning ** In Output:Table:Monthly 'BUILDING ENERGY PERFORMANCE - DISTRICT COOLING PEAK DEMAND' invalid Variable or Meter Name 'INTERIOREQUIPMENT:DISTRICTCOOLING'",
    "   ** Warning ** In Output:Table:Monthly 'BUILDING ENERGY PERFORMANCE - DISTRICT COOLING PEAK DEMAND' invalid Variable or Meter Name 'EXTERIOREQUIPMENT:DISTRICTCOOLING'",
    "   ** Warning ** In Output:Table:Monthly 'BUILDING ENERGY PERFORMANCE - DISTRICT COOLING PEAK DEMAND' invalid Variable or Meter Name 'FANS:DISTRICTCOOLING'",
    "   ** Warning ** In Output:Table:Monthly 'BUILDING ENERGY PERFORMANCE - DISTRICT COOLING PEAK DEMAND' invalid Variable or Meter Name 'PUMPS:DISTRICTCOOLING'",
    "   ** Warning ** In Output:Table:Monthly 'BUILDING ENERGY PERFORMANCE - DISTRICT COOLING PEAK DEMAND' invalid Variable or Meter Name 'HEATING:DISTRICTCOOLING'",
    "   ** Warning ** In Output:Table:Monthly 'BUILDING ENERGY PERFORMANCE - DISTRICT COOLING PEAK DEMAND' invalid Variable or Meter Name 'COOLING:DISTRICTCOOLING'",
    "   ** Warning ** In Output:Table:Monthly 'BUILDING ENERGY PERFORMANCE - DISTRICT COOLING PEAK DEMAND' invalid Variable or Meter Name 'HEATREJECTION:DISTRICTCOOLING'",
    "   ** Warning ** In Output:Table:Monthly 'BUILDING ENERGY PERFORMANCE - DISTRICT COOLING PEAK DEMAND' invalid Variable or Meter Name 'HUMIDIFIER:DISTRICTCOOLING'",
    "   ** Warning ** In Output:Table:Monthly 'BUILDING ENERGY PERFORMANCE - DISTRICT COOLING PEAK DEMAND' invalid Variable or Meter Name 'HEATRECOVERY:DISTRICTCOOLING'",
    "   ** Warning ** In Output:Table:Monthly 'BUILDING ENERGY PERFORMANCE - DISTRICT COOLING PEAK DEMAND' invalid Variable or Meter Name 'WATERSYSTEMS:DISTRICTCOOLING'",
    "   ** Warning ** In Output:Table:Monthly 'BUILDING ENERGY PERFORMANCE - DISTRICT COOLING PEAK DEMAND' invalid Variable or Meter Name 'COGENERATION:DISTRICTCOOLING'",
    "   ** Warning ** Processing Monthly Tabular Reports: Variable names not valid for this simulation",
    "   **   ~~~   ** ...use Output:Diagnostics,DisplayExtraWarnings; to show more details on individual variables.",
    "   ** Warning ** SimHVAC: Maximum iterations (20) exceeded for all HVAC loops, at LOS-ANGELES-INTL_722950_CZ2010, 01/01 06:00 - 06:15",
    "   **   ~~~   ** The solution for one or more of the Air Loop HVAC systems did not appear to converge",
    "   **   ~~~   ** The solution for one or more plant systems did not appear to converge",
    "   ** Warning ** Temperature out of range [-100. to 200.] (PsyPsatFnTemp)",
    "   **   ~~~   **  Routine=PsyTwbFnTdbWPb, Environment=LOS-ANGELES-INTL_722950_CZ2010, at Simulation time=01/01 06:45 - 07:00",
    "   **   ~~~   **  Input Temperature=-108.69",
    "   ** Warning ** SimHVAC: Maximum iterations (20) exceeded for all HVAC loops, at LOS-ANGELES-INTL_722950_CZ2010, 01/01 07:00 - 07:15",
    "   **   ~~~   ** The solution for one or more of the Air Loop HVAC systems did not appear to converge",
    "   **   ~~~   ** The solution for one or more plant systems did not appear to converge",
    "   ** Warning ** SimHVAC: Maximum iterations (20) exceeded for all HVAC loops, at LOS-ANGELES-INTL_722950_CZ2010, 01/01 07:23 - 07:26",
    "   **   ~~~   ** The solution for one or more of the Air Loop HVAC systems did not appear to converge",
    "   **   ~~~   ** The solution for one or more plant systems did not appear to converge",
    "   ** Warning ** SimHVAC: Maximum iterations (20) exceeded for all HVAC loops, at LOS-ANGELES-INTL_722950_CZ2010, 01/01 07:26 - 07:30",
    "   **   ~~~   ** The solution for one or more of the Air Loop HVAC systems did not appear to converge",
    "   **   ~~~   ** The solution for one or more plant systems did not appear to converge",
    "   ** Warning ** SimHVAC: Maximum iterations (20) exceeded for all HVAC loops, at LOS-ANGELES-INTL_722950_CZ2010, 01/01 07:30 - 07:35",
    "   **   ~~~   ** The solution for one or more of the Air Loop HVAC systems did not appear to converge",
    "   **   ~~~   ** The solution for one or more plant systems did not appear to converge",
    "   ** Warning ** SimHVAC: Maximum iterations (20) exceeded for all HVAC loops, at LOS-ANGELES-INTL_722950_CZ2010, 01/01 07:40 - 07:45",
    "   **   ~~~   ** The solution for one or more of the Air Loop HVAC systems did not appear to converge",
    "   ** Warning ** SimHVAC: Maximum iterations (20) exceeded for all HVAC loops, at LOS-ANGELES-INTL_722950_CZ2010, 01/01 08:10 - 08:15",
    "   **   ~~~   ** The solution for one or more of the Air Loop HVAC systems did not appear to converge",
    "   **   ~~~   ** The solution for one or more plant systems did not appear to converge",
    "   ** Warning ** SimHVAC: Maximum iterations (20) exceeded for all HVAC loops, at LOS-ANGELES-INTL_722950_CZ2010, 01/01 08:30 - 08:45",
    "   **   ~~~   ** The solution for one or more of the Air Loop HVAC systems did not appear to converge",
    "   **   ~~~   ** The solution for one or more plant systems did not appear to converge",
    "   ** Warning ** SimHVAC: Maximum iterations (20) exceeded for all HVAC loops, at LOS-ANGELES-INTL_722950_CZ2010, 01/01 09:00 - 09:15",
    "   **   ~~~   ** The solution for one or more of the Air Loop HVAC systems did not appear to converge",
    "   ** Warning ** SimHVAC: Maximum iterations (20) exceeded for all HVAC loops, at LOS-ANGELES-INTL_722950_CZ2010, 01/02 00:00 - 00:15",
    "   **   ~~~   ** The solution for one or more plant systems did not appear to converge",
    "   ** Warning ** SimHVAC: Maximum iterations (20) exceeded for all HVAC loops, at LOS-ANGELES-INTL_722950_CZ2010, 01/02 05:00 - 05:15",
    "   **   ~~~   ** The solution for one or more plant systems did not appear to converge",
    "   ** Warning ** SimHVAC: Maximum iterations (20) exceeded for all HVAC loops, at LOS-ANGELES-INTL_722950_CZ2010, 01/02 05:01 - 05:02",
    "   **   ~~~   ** The solution for one or more plant systems did not appear to converge",
    "   ** Warning ** SimHVAC: Maximum iterations (20) exceeded for all HVAC loops, at LOS-ANGELES-INTL_722950_CZ2010, 01/02 05:02 - 05:03",
    "   **   ~~~   ** The solution for one or more plant systems did not appear to converge",
    "   ** Warning ** WetBulb not converged after 101 iterations(PsyTwbFnTdbWPb)",
    "   **   ~~~   **  Routine=Unknown, Environment=LOS-ANGELES-INTL_722950_CZ2010, at Simulation time=01/07 19:51 - 19:54",
    "   **   ~~~   **  Input Temperature = 7.62",
    "   **   ~~~   **  Input Humidity Ratio= 6.871698E-004",
    "   **   ~~~   **  Input Pressure = 101700.00",
    "   **   ~~~   **  Resultant Temperature= 0.17",
    "   ** Warning ** The resource referenced by LifeCycleCost:UsePriceEscalation= \"U.S. AVG  COMMERCIAL-ELECTRICITY\" has no energy cost. ",
    "   **   ~~~   ** ... It is likely that the wrong resource is used. The resource should match the meter used in Utility:Tariff.",
    "   ** Warning ** The resource referenced by LifeCycleCost:UsePriceEscalation= \"U.S. AVG  COMMERCIAL-DISTILLATE OIL\" has no energy cost. ",
    "   **   ~~~   ** ... It is likely that the wrong resource is used. The resource should match the meter used in Utility:Tariff.",
    "   ** Warning ** The resource referenced by LifeCycleCost:UsePriceEscalation= \"U.S. AVG  COMMERCIAL-RESIDUAL OIL\" has no energy cost. ",
    "   **   ~~~   ** ... It is likely that the wrong resource is used. The resource should match the meter used in Utility:Tariff.",
    "   ** Warning ** The resource referenced by LifeCycleCost:UsePriceEscalation= \"U.S. AVG  COMMERCIAL-NATURAL GAS\" has no energy cost. ",
    "   **   ~~~   ** ... It is likely that the wrong resource is used. The resource should match the meter used in Utility:Tariff.",
    "   ** Warning ** The resource referenced by LifeCycleCost:UsePriceEscalation= \"U.S. AVG  COMMERCIAL-COAL\" has no energy cost. ",
    "   **   ~~~   ** ... It is likely that the wrong resource is used. The resource should match the meter used in Utility:Tariff.",
    "   ************* Simulation Error Summary *************",
    "   ************* There are 9 unused schedules in input.",
    "   ************* There are 5 unused week schedules in input.",
    "   ************* There are 20 unused day schedules in input.",
    "   ************* Use Output:Diagnostics,DisplayUnusedSchedules; to see them.",
    "   *************",
    "   ************* ===== Recurring Error Summary =====",
    "   ************* The following recurring error messages occurred.",
    "   *************",
    "   *************  ** Warning ** Temperature out of range [-100. to 200.] (PsyPsatFnTemp)",
    "   *************  **   ~~~   **   This error occurred 23 total times;",
    "   *************  **   ~~~   **   during Warmup 0 times;",
    "   *************  **   ~~~   **   during Sizing 0 times.",
    "   *************  **   ~~~   **   Max=-104.593102 C  Min=-4734.45459 C",
    "   *************",
    "   *************  ** Warning ** SimHVAC: Exceeding Maximum iterations for all HVAC loops, during LOS-ANGELES-INTL_722950_CZ2010 continues",
    "   *************  **   ~~~   **   This error occurred 5431 total times;",
    "   *************  **   ~~~   **   during Warmup 0 times;",
    "   *************  **   ~~~   **   during Sizing 0 times.",
    "   *************",
    "   *************  ** Warning ** WetBulb not converged after max iterations(PsyTwbFnTdbWPb)",
    "   *************  **   ~~~   **   This error occurred 4 total times;",
    "   *************  **   ~~~   **   during Warmup 0 times;",
    "   *************  **   ~~~   **   during Sizing 0 times.",
    "   *************",
    "   *************",
    "   ************* ===== Final Error Summary =====",
    "   ************* The following error categories occurred.  Consider correcting or noting.",
    "   ************* Loads Initialization did not Converge",
    "   ************* ..1) very high thermal mass such as very thick concrete (solution: increase max number of warmup",
    "   ************* ..   days in the BUILDING object);",
    "   ************* ..2) moderate mass and inadequate space conditioning such that the building keeps getting warmer",
    "   ************* ..   and warmer on successive days (solution: add HVAC, check building thermal properties,",
    "   ************* ..   check if infiltration is included, make sure HVAC properly controlled);",
    "   ************* ..3) a soil layer modeled below the concrete slab - (solution remove this layer and read about",
    "   ************* ..   ground temperatures in the Auxiliary Programs document).",
    "   ************* ..4) unreasonable (too small) limits in the BUILDING object for temperature (.4 default) or",
    "   ************* ..   loads tolerances (.04 default)",
    "   *************",
    "   ************* EnergyPlus Warmup Error Summary. During Warmup: 0 Warning; 14 Severe Errors.",
    "   ************* EnergyPlus Sizing Error Summary. During Sizing: 36 Warning; 0 Severe Errors.",
    "   ************* EnergyPlus Completed Successfully-- 5690 Warning; 14 Severe Errors; "
  ],
  "file_paths": [
    "/home/julien/Software/Others/OpenStudio-resources/testruns/030006_OffMed_Run29.xml/generated_files",
    "./files",
    "./weather",
    "../../files",
    "../../weather",
    "./"
  ],
  "seed_file": "in.osm",
  "steps": [
    {
      "arguments": {
      },
      "measure_dir_name": "openstudio_results",
      "result": {
        "measure_class_name": "OpenStudioResults",
        "measure_display_name": "OpenStudio Results",
        "measure_name": "openstudio_results",
        "measure_taxonomy": "Reporting.QAQC",
        "measure_type": "ReportingMeasure",
        "measure_uid": "a25386cd-60e4-46bc-8b11-c755f379d916",
        "measure_version_id": "02ad7007-fe7b-4747-bd7a-29d697c4d91a",
        "measure_version_modified": "20180711T183039Z",
        "measure_xml_checksum": "557BF06F",
        "stderr": "",
        "stdout": "",
        "step_errors": [

        ],
        "step_final_condition": "Generated report with 19 sections to ./report.html.",
        "step_info": [

        ],
        "step_initial_condition": "Gathering data from EnergyPlus SQL file and OSM model.",
        "step_result": "Success",
        "step_values": [
          {
            "name": "building_summary_section",
            "value": true
          },
          {
            "name": "annual_overview_section",
            "value": true
          },
          {
            "name": "monthly_overview_section",
            "value": true
          },
          {
            "name": "utility_bills_rates_section",
            "value": true
          },
          {
            "name": "envelope_section_section",
            "value": true
          },
          {
            "name": "space_type_breakdown_section",
            "value": true
          },
          {
            "name": "space_type_details_section",
            "value": true
          },
          {
            "name": "interior_lighting_section",
            "value": true
          },
          {
            "name": "plug_loads_section",
            "value": true
          },
          {
            "name": "exterior_light_section",
            "value": true
          },
          {
            "name": "water_use_section",
            "value": true
          },
          {
            "name": "hvac_load_profile",
            "value": true
          },
          {
            "name": "zone_condition_section",
            "value": true
          },
          {
            "name": "zone_summary_section",
            "value": true
          },
          {
            "name": "zone_equipment_detail_section",
            "value": true
          },
          {
            "name": "air_loops_detail_section",
            "value": true
          },
          {
            "name": "plant_loops_detail_section",
            "value": true
          },
          {
            "name": "outdoor_air_section",
            "value": true
          },
          {
            "name": "cost_summary_section",
            "value": true
          },
          {
            "name": "source_energy_section",
            "value": true
          },
          {
            "name": "schedules_overview_section",
            "value": true
          },
          {
            "name": "standards_gem_version",
            "value": "0.2.14"
          },
          {
            "name": "workflow_gem_version",
            "value": "2.2.1"
          },
          {
            "display_name": "OfficeMedium",
            "name": "building_name",
            "value": "n/a"
          },
          {
            "name": "total_site_energy",
            "units": "kBtu",
            "value": 2214119.75
          },
          {
            "name": "net_site_energy",
            "units": "kBtu",
            "value": 2214119.75
          },
          {
            "name": "total_building_area",
            "units": "ft^2",
            "value": 107255.59
          },
          {
            "name": "total_site_eui",
            "units": "kBtu/ft^2",
            "value": 20.64
          },
          {
            "name": "eui",
            "units": "kBtu/ft^2",
            "value": 20.64
          },
          {
            "name": "unmet_hours_during_heating",
            "units": "hr",
            "value": 884.75
          },
          {
            "name": "unmet_hours_during_cooling",
            "units": "hr",
            "value": 0.25
          },
          {
            "name": "unmet_hours_during_occupied_heating",
            "units": "hr",
            "value": 507.5
          },
          {
            "name": "unmet_hours_during_occupied_cooling",
            "units": "hr",
            "value": 0.0
          },
          {
            "name": "unmet_hours_tolerance_heating",
            "units": "F",
            "value": 1.01
          },
          {
            "name": "unmet_hours_tolerance_cooling",
            "units": "F",
            "value": 1.01
          },
          {
            "name": "electricity_heating_ip",
            "units": "kWh",
            "value": 51.26
          },
          {
            "name": "electricity_cooling_ip",
            "units": "kWh",
            "value": 70638.7
          },
          {
            "name": "electricity_interior_lighting_ip",
            "units": "kWh",
            "value": 73025.19
          },
          {
            "name": "electricity_exterior_lighting_ip",
            "units": "kWh",
            "value": 0.0
          },
          {
            "name": "electricity_interior_equipment_ip",
            "units": "kWh",
            "value": 229701.31
          },
          {
            "name": "electricity_exterior_equipment_ip",
            "units": "kWh",
            "value": 0.0
          },
          {
            "name": "electricity_fans_ip",
            "units": "kWh",
            "value": 39276.61
          },
          {
            "name": "electricity_pumps_ip",
            "units": "kWh",
            "value": 2216.62
          },
          {
            "name": "electricity_heat_rejection_ip",
            "units": "kWh",
            "value": 0.0
          },
          {
            "name": "electricity_humidification_ip",
            "units": "kWh",
            "value": 0.0
          },
          {
            "name": "electricity_heat_recovery_ip",
            "units": "kWh",
            "value": 0.0
          },
          {
            "name": "electricity_water_systems_ip",
            "units": "kWh",
            "value": 0.0
          },
          {
            "name": "electricity_refrigeration_ip",
            "units": "kWh",
            "value": 0.0
          },
          {
            "name": "electricity_generators_ip",
            "units": "kWh",
            "value": 0.0
          },
          {
            "name": "electricity_ip",
            "units": "kWh",
            "value": 414909.69
          },
          {
            "name": "natural_gas_heating_ip",
            "units": "MBtu",
            "value": 798.39
          },
          {
            "name": "natural_gas_cooling_ip",
            "units": "MBtu",
            "value": 0.0
          },
          {
            "name": "natural_gas_interior_lighting_ip",
            "units": "MBtu",
            "value": 0.0
          },
          {
            "name": "natural_gas_exterior_lighting_ip",
            "units": "MBtu",
            "value": 0.0
          },
          {
            "name": "natural_gas_interior_equipment_ip",
            "units": "MBtu",
            "value": 0.0
          },
          {
            "name": "natural_gas_exterior_equipment_ip",
            "units": "MBtu",
            "value": 0.0
          },
          {
            "name": "natural_gas_fans_ip",
            "units": "MBtu",
            "value": 0.0
          },
          {
            "name": "natural_gas_pumps_ip",
            "units": "MBtu",
            "value": 0.0
          },
          {
            "name": "natural_gas_heat_rejection_ip",
            "units": "MBtu",
            "value": 0.0
          },
          {
            "name": "natural_gas_humidification_ip",
            "units": "MBtu",
            "value": 0.0
          },
          {
            "name": "natural_gas_heat_recovery_ip",
            "units": "MBtu",
            "value": 0.0
          },
          {
            "name": "natural_gas_water_systems_ip",
            "units": "MBtu",
            "value": 0.0
          },
          {
            "name": "natural_gas_refrigeration_ip",
            "units": "MBtu",
            "value": 0.0
          },
          {
            "name": "natural_gas_generators_ip",
            "units": "MBtu",
            "value": 0.0
          },
          {
            "name": "natural_gas_ip",
            "units": "MBtu",
            "value": 798.39
          },
          {
            "name": "gasoline_heating_ip",
            "units": "MBtu",
            "value": 0.0
          },
          {
            "name": "gasoline_cooling_ip",
            "units": "MBtu",
            "value": 0.0
          },
          {
            "name": "gasoline_interior_lighting_ip",
            "units": "MBtu",
            "value": 0.0
          },
          {
            "name": "gasoline_exterior_lighting_ip",
            "units": "MBtu",
            "value": 0.0
          },
          {
            "name": "gasoline_interior_equipment_ip",
            "units": "MBtu",
            "value": 0.0
          },
          {
            "name": "gasoline_exterior_equipment_ip",
            "units": "MBtu",
            "value": 0.0
          },
          {
            "name": "gasoline_fans_ip",
            "units": "MBtu",
            "value": 0.0
          },
          {
            "name": "gasoline_pumps_ip",
            "units": "MBtu",
            "value": 0.0
          },
          {
            "name": "gasoline_heat_rejection_ip",
            "units": "MBtu",
            "value": 0.0
          },
          {
            "name": "gasoline_humidification_ip",
            "units": "MBtu",
            "value": 0.0
          },
          {
            "name": "gasoline_heat_recovery_ip",
            "units": "MBtu",
            "value": 0.0
          },
          {
            "name": "gasoline_water_systems_ip",
            "units": "MBtu",
            "value": 0.0
          },
          {
            "name": "gasoline_refrigeration_ip",
            "units": "MBtu",
            "value": 0.0
          },
          {
            "name": "gasoline_generators_ip",
            "units": "MBtu",
            "value": 0.0
          },
          {
            "name": "gasoline_ip",
            "units": "MBtu",
            "value": 0.0
          },
          {
            "name": "diesel_heating_ip",
            "units": "MBtu",
            "value": 0.0
          },
          {
            "name": "diesel_cooling_ip",
            "units": "MBtu",
            "value": 0.0
          },
          {
            "name": "diesel_interior_lighting_ip",
            "units": "MBtu",
            "value": 0.0
          },
          {
            "name": "diesel_exterior_lighting_ip",
            "units": "MBtu",
            "value": 0.0
          },
          {
            "name": "diesel_interior_equipment_ip",
            "units": "MBtu",
            "value": 0.0
          },
          {
            "name": "diesel_exterior_equipment_ip",
            "units": "MBtu",
            "value": 0.0
          },
          {
            "name": "diesel_fans_ip",
            "units": "MBtu",
            "value": 0.0
          },
          {
            "name": "diesel_pumps_ip",
            "units": "MBtu",
            "value": 0.0
          },
          {
            "name": "diesel_heat_rejection_ip",
            "units": "MBtu",
            "value": 0.0
          },
          {
            "name": "diesel_humidification_ip",
            "units": "MBtu",
            "value": 0.0
          },
          {
            "name": "diesel_heat_recovery_ip",
            "units": "MBtu",
            "value": 0.0
          },
          {
            "name": "diesel_water_systems_ip",
            "units": "MBtu",
            "value": 0.0
          },
          {
            "name": "diesel_refrigeration_ip",
            "units": "MBtu",
            "value": 0.0
          },
          {
            "name": "diesel_generators_ip",
            "units": "MBtu",
            "value": 0.0
          },
          {
            "name": "diesel_ip",
            "units": "MBtu",
            "value": 0.0
          },
          {
            "name": "coal_heating_ip",
            "units": "MBtu",
            "value": 0.0
          },
          {
            "name": "coal_cooling_ip",
            "units": "MBtu",
            "value": 0.0
          },
          {
            "name": "coal_interior_lighting_ip",
            "units": "MBtu",
            "value": 0.0
          },
          {
            "name": "coal_exterior_lighting_ip",
            "units": "MBtu",
            "value": 0.0
          },
          {
            "name": "coal_interior_equipment_ip",
            "units": "MBtu",
            "value": 0.0
          },
          {
            "name": "coal_exterior_equipment_ip",
            "units": "MBtu",
            "value": 0.0
          },
          {
            "name": "coal_fans_ip",
            "units": "MBtu",
            "value": 0.0
          },
          {
            "name": "coal_pumps_ip",
            "units": "MBtu",
            "value": 0.0
          },
          {
            "name": "coal_heat_rejection_ip",
            "units": "MBtu",
            "value": 0.0
          },
          {
            "name": "coal_humidification_ip",
            "units": "MBtu",
            "value": 0.0
          },
          {
            "name": "coal_heat_recovery_ip",
            "units": "MBtu",
            "value": 0.0
          },
          {
            "name": "coal_water_systems_ip",
            "units": "MBtu",
            "value": 0.0
          },
          {
            "name": "coal_refrigeration_ip",
            "units": "MBtu",
            "value": 0.0
          },
          {
            "name": "coal_generators_ip",
            "units": "MBtu",
            "value": 0.0
          },
          {
            "name": "coal_ip",
            "units": "MBtu",
            "value": 0.0
          },
          {
            "name": "fuel_oil_no_1_heating_ip",
            "units": "MBtu",
            "value": 0.0
          },
          {
            "name": "fuel_oil_no_1_cooling_ip",
            "units": "MBtu",
            "value": 0.0
          },
          {
            "name": "fuel_oil_no_1_interior_lighting_ip",
            "units": "MBtu",
            "value": 0.0
          },
          {
            "name": "fuel_oil_no_1_exterior_lighting_ip",
            "units": "MBtu",
            "value": 0.0
          },
          {
            "name": "fuel_oil_no_1_interior_equipment_ip",
            "units": "MBtu",
            "value": 0.0
          },
          {
            "name": "fuel_oil_no_1_exterior_equipment_ip",
            "units": "MBtu",
            "value": 0.0
          },
          {
            "name": "fuel_oil_no_1_fans_ip",
            "units": "MBtu",
            "value": 0.0
          },
          {
            "name": "fuel_oil_no_1_pumps_ip",
            "units": "MBtu",
            "value": 0.0
          },
          {
            "name": "fuel_oil_no_1_heat_rejection_ip",
            "units": "MBtu",
            "value": 0.0
          },
          {
            "name": "fuel_oil_no_1_humidification_ip",
            "units": "MBtu",
            "value": 0.0
          },
          {
            "name": "fuel_oil_no_1_heat_recovery_ip",
            "units": "MBtu",
            "value": 0.0
          },
          {
            "name": "fuel_oil_no_1_water_systems_ip",
            "units": "MBtu",
            "value": 0.0
          },
          {
            "name": "fuel_oil_no_1_refrigeration_ip",
            "units": "MBtu",
            "value": 0.0
          },
          {
            "name": "fuel_oil_no_1_generators_ip",
            "units": "MBtu",
            "value": 0.0
          },
          {
            "name": "fuel_oil_no_1_ip",
            "units": "MBtu",
            "value": 0.0
          },
          {
            "name": "fuel_oil_no_2_heating_ip",
            "units": "MBtu",
            "value": 0.0
          },
          {
            "name": "fuel_oil_no_2_cooling_ip",
            "units": "MBtu",
            "value": 0.0
          },
          {
            "name": "fuel_oil_no_2_interior_lighting_ip",
            "units": "MBtu",
            "value": 0.0
          },
          {
            "name": "fuel_oil_no_2_exterior_lighting_ip",
            "units": "MBtu",
            "value": 0.0
          },
          {
            "name": "fuel_oil_no_2_interior_equipment_ip",
            "units": "MBtu",
            "value": 0.0
          },
          {
            "name": "fuel_oil_no_2_exterior_equipment_ip",
            "units": "MBtu",
            "value": 0.0
          },
          {
            "name": "fuel_oil_no_2_fans_ip",
            "units": "MBtu",
            "value": 0.0
          },
          {
            "name": "fuel_oil_no_2_pumps_ip",
            "units": "MBtu",
            "value": 0.0
          },
          {
            "name": "fuel_oil_no_2_heat_rejection_ip",
            "units": "MBtu",
            "value": 0.0
          },
          {
            "name": "fuel_oil_no_2_humidification_ip",
            "units": "MBtu",
            "value": 0.0
          },
          {
            "name": "fuel_oil_no_2_heat_recovery_ip",
            "units": "MBtu",
            "value": 0.0
          },
          {
            "name": "fuel_oil_no_2_water_systems_ip",
            "units": "MBtu",
            "value": 0.0
          },
          {
            "name": "fuel_oil_no_2_refrigeration_ip",
            "units": "MBtu",
            "value": 0.0
          },
          {
            "name": "fuel_oil_no_2_generators_ip",
            "units": "MBtu",
            "value": 0.0
          },
          {
            "name": "fuel_oil_no_2_ip",
            "units": "MBtu",
            "value": 0.0
          },
          {
            "name": "propane_heating_ip",
            "units": "MBtu",
            "value": 0.0
          },
          {
            "name": "propane_cooling_ip",
            "units": "MBtu",
            "value": 0.0
          },
          {
            "name": "propane_interior_lighting_ip",
            "units": "MBtu",
            "value": 0.0
          },
          {
            "name": "propane_exterior_lighting_ip",
            "units": "MBtu",
            "value": 0.0
          },
          {
            "name": "propane_interior_equipment_ip",
            "units": "MBtu",
            "value": 0.0
          },
          {
            "name": "propane_exterior_equipment_ip",
            "units": "MBtu",
            "value": 0.0
          },
          {
            "name": "propane_fans_ip",
            "units": "MBtu",
            "value": 0.0
          },
          {
            "name": "propane_pumps_ip",
            "units": "MBtu",
            "value": 0.0
          },
          {
            "name": "propane_heat_rejection_ip",
            "units": "MBtu",
            "value": 0.0
          },
          {
            "name": "propane_humidification_ip",
            "units": "MBtu",
            "value": 0.0
          },
          {
            "name": "propane_heat_recovery_ip",
            "units": "MBtu",
            "value": 0.0
          },
          {
            "name": "propane_water_systems_ip",
            "units": "MBtu",
            "value": 0.0
          },
          {
            "name": "propane_refrigeration_ip",
            "units": "MBtu",
            "value": 0.0
          },
          {
            "name": "propane_generators_ip",
            "units": "MBtu",
            "value": 0.0
          },
          {
            "name": "propane_ip",
            "units": "MBtu",
            "value": 0.0
          },
          {
            "name": "other_fuel_1_heating_ip",
            "units": "MBtu",
            "value": 0.0
          },
          {
            "name": "other_fuel_1_cooling_ip",
            "units": "MBtu",
            "value": 0.0
          },
          {
            "name": "other_fuel_1_interior_lighting_ip",
            "units": "MBtu",
            "value": 0.0
          },
          {
            "name": "other_fuel_1_exterior_lighting_ip",
            "units": "MBtu",
            "value": 0.0
          },
          {
            "name": "other_fuel_1_interior_equipment_ip",
            "units": "MBtu",
            "value": 0.0
          },
          {
            "name": "other_fuel_1_exterior_equipment_ip",
            "units": "MBtu",
            "value": 0.0
          },
          {
            "name": "other_fuel_1_fans_ip",
            "units": "MBtu",
            "value": 0.0
          },
          {
            "name": "other_fuel_1_pumps_ip",
            "units": "MBtu",
            "value": 0.0
          },
          {
            "name": "other_fuel_1_heat_rejection_ip",
            "units": "MBtu",
            "value": 0.0
          },
          {
            "name": "other_fuel_1_humidification_ip",
            "units": "MBtu",
            "value": 0.0
          },
          {
            "name": "other_fuel_1_heat_recovery_ip",
            "units": "MBtu",
            "value": 0.0
          },
          {
            "name": "other_fuel_1_water_systems_ip",
            "units": "MBtu",
            "value": 0.0
          },
          {
            "name": "other_fuel_1_refrigeration_ip",
            "units": "MBtu",
            "value": 0.0
          },
          {
            "name": "other_fuel_1_generators_ip",
            "units": "MBtu",
            "value": 0.0
          },
          {
            "name": "other_fuel_1_ip",
            "units": "MBtu",
            "value": 0.0
          },
          {
            "name": "other_fuel_2_heating_ip",
            "units": "MBtu",
            "value": 0.0
          },
          {
            "name": "other_fuel_2_cooling_ip",
            "units": "MBtu",
            "value": 0.0
          },
          {
            "name": "other_fuel_2_interior_lighting_ip",
            "units": "MBtu",
            "value": 0.0
          },
          {
            "name": "other_fuel_2_exterior_lighting_ip",
            "units": "MBtu",
            "value": 0.0
          },
          {
            "name": "other_fuel_2_interior_equipment_ip",
            "units": "MBtu",
            "value": 0.0
          },
          {
            "name": "other_fuel_2_exterior_equipment_ip",
            "units": "MBtu",
            "value": 0.0
          },
          {
            "name": "other_fuel_2_fans_ip",
            "units": "MBtu",
            "value": 0.0
          },
          {
            "name": "other_fuel_2_pumps_ip",
            "units": "MBtu",
            "value": 0.0
          },
          {
            "name": "other_fuel_2_heat_rejection_ip",
            "units": "MBtu",
            "value": 0.0
          },
          {
            "name": "other_fuel_2_humidification_ip",
            "units": "MBtu",
            "value": 0.0
          },
          {
            "name": "other_fuel_2_heat_recovery_ip",
            "units": "MBtu",
            "value": 0.0
          },
          {
            "name": "other_fuel_2_water_systems_ip",
            "units": "MBtu",
            "value": 0.0
          },
          {
            "name": "other_fuel_2_refrigeration_ip",
            "units": "MBtu",
            "value": 0.0
          },
          {
            "name": "other_fuel_2_generators_ip",
            "units": "MBtu",
            "value": 0.0
          },
          {
            "name": "other_fuel_2_ip",
            "units": "MBtu",
            "value": 0.0
          },
          {
            "name": "district_cooling_heating_ip",
            "units": "MBtu",
            "value": 0.0
          },
          {
            "name": "district_cooling_cooling_ip",
            "units": "MBtu",
            "value": 0.0
          },
          {
            "name": "district_cooling_interior_lighting_ip",
            "units": "MBtu",
            "value": 0.0
          },
          {
            "name": "district_cooling_exterior_lighting_ip",
            "units": "MBtu",
            "value": 0.0
          },
          {
            "name": "district_cooling_interior_equipment_ip",
            "units": "MBtu",
            "value": 0.0
          },
          {
            "name": "district_cooling_exterior_equipment_ip",
            "units": "MBtu",
            "value": 0.0
          },
          {
            "name": "district_cooling_fans_ip",
            "units": "MBtu",
            "value": 0.0
          },
          {
            "name": "district_cooling_pumps_ip",
            "units": "MBtu",
            "value": 0.0
          },
          {
            "name": "district_cooling_heat_rejection_ip",
            "units": "MBtu",
            "value": 0.0
          },
          {
            "name": "district_cooling_humidification_ip",
            "units": "MBtu",
            "value": 0.0
          },
          {
            "name": "district_cooling_heat_recovery_ip",
            "units": "MBtu",
            "value": 0.0
          },
          {
            "name": "district_cooling_water_systems_ip",
            "units": "MBtu",
            "value": 0.0
          },
          {
            "name": "district_cooling_refrigeration_ip",
            "units": "MBtu",
            "value": 0.0
          },
          {
            "name": "district_cooling_generators_ip",
            "units": "MBtu",
            "value": 0.0
          },
          {
            "name": "district_cooling_ip",
            "units": "MBtu",
            "value": 0.0
          },
          {
            "name": "district_heating_heating_ip",
            "units": "MBtu",
            "value": 0.0
          },
          {
            "name": "district_heating_cooling_ip",
            "units": "MBtu",
            "value": 0.0
          },
          {
            "name": "district_heating_interior_lighting_ip",
            "units": "MBtu",
            "value": 0.0
          },
          {
            "name": "district_heating_exterior_lighting_ip",
            "units": "MBtu",
            "value": 0.0
          },
          {
            "name": "district_heating_interior_equipment_ip",
            "units": "MBtu",
            "value": 0.0
          },
          {
            "name": "district_heating_exterior_equipment_ip",
            "units": "MBtu",
            "value": 0.0
          },
          {
            "name": "district_heating_fans_ip",
            "units": "MBtu",
            "value": 0.0
          },
          {
            "name": "district_heating_pumps_ip",
            "units": "MBtu",
            "value": 0.0
          },
          {
            "name": "district_heating_heat_rejection_ip",
            "units": "MBtu",
            "value": 0.0
          },
          {
            "name": "district_heating_humidification_ip",
            "units": "MBtu",
            "value": 0.0
          },
          {
            "name": "district_heating_heat_recovery_ip",
            "units": "MBtu",
            "value": 0.0
          },
          {
            "name": "district_heating_water_systems_ip",
            "units": "MBtu",
            "value": 0.0
          },
          {
            "name": "district_heating_refrigeration_ip",
            "units": "MBtu",
            "value": 0.0
          },
          {
            "name": "district_heating_generators_ip",
            "units": "MBtu",
            "value": 0.0
          },
          {
            "name": "district_heating_ip",
            "units": "MBtu",
            "value": 0.0
          },
          {
            "name": "water_heating_ip",
            "units": "MBtu",
            "value": 0.0
          },
          {
            "name": "water_cooling_ip",
            "units": "MBtu",
            "value": 0.0
          },
          {
            "name": "water_interior_lighting_ip",
            "units": "MBtu",
            "value": 0.0
          },
          {
            "name": "water_exterior_lighting_ip",
            "units": "MBtu",
            "value": 0.0
          },
          {
            "name": "water_interior_equipment_ip",
            "units": "MBtu",
            "value": 0.0
          },
          {
            "name": "water_exterior_equipment_ip",
            "units": "MBtu",
            "value": 0.0
          },
          {
            "name": "water_fans_ip",
            "units": "MBtu",
            "value": 0.0
          },
          {
            "name": "water_pumps_ip",
            "units": "MBtu",
            "value": 0.0
          },
          {
            "name": "water_heat_rejection_ip",
            "units": "MBtu",
            "value": 0.0
          },
          {
            "name": "water_humidification_ip",
            "units": "MBtu",
            "value": 0.0
          },
          {
            "name": "water_heat_recovery_ip",
            "units": "MBtu",
            "value": 0.0
          },
          {
            "name": "water_water_systems_ip",
            "units": "MBtu",
            "value": 0.0
          },
          {
            "name": "water_refrigeration_ip",
            "units": "MBtu",
            "value": 0.0
          },
          {
            "name": "water_generators_ip",
            "units": "MBtu",
            "value": 0.0
          },
          {
            "name": "water_ip",
            "units": "MBtu",
            "value": 0.0
          },
          {
            "name": "nacm_conc_raised_flr",
            "units": "ft^2",
            "value": 17875.93
          },
          {
            "name": "nacm_metal_framed_wall",
            "units": "ft^2",
            "value": 14260.92
          },
          {
            "name": "nacm_roof",
            "units": "ft^2",
            "value": 17875.93
          },
          {
            "name": "fixed_window",
            "units": "ft^2",
            "value": 7026.53
          },
          {
            "name": "gross_window_wall_ratio",
            "units": "%",
            "value": 33.01
          },
          {
            "name": "gross_window_wall_ratio_conditioned",
            "units": "%",
            "value": 47.68
          },
          {
            "name": "skylight_roof_ratio",
            "units": "%",
            "value": 0.0
          },
          {
            "name": "space_type_no_space_type",
            "units": "ft^2",
            "value": 107255.59
          },
          {
            "name": "exterior_lighting_total_power",
            "units": "W",
            "value": 0.0
          },
          {
            "name": "exterior_lighting_total_consumption",
            "units": "kWh",
            "value": 648894.44
          },
          {
            "name": "inflation_approach",
            "value": "Constant Dollar"
          },
          {
            "name": "analysis_length",
            "units": "yrs",
            "value": 25
          },
          {
            "name": "annual_peak_electric_demand",
            "units": "kW",
            "value": 201.45
          },
          {
            "name": "first_year_capital_cost",
            "units": "$",
            "value": 0.0
          },
          {
            "name": "annual_utility_cost",
            "units": "$",
            "value": 0.0
          },
          {
            "name": "total_lifecycle_cost",
            "units": "$",
            "value": 0.0
          }
        ],
        "step_warnings": [
          "Annual Overview section failed and was skipped because: Optional not initialized. Detail on error follows.",
          "/home/julien/Software/Others/OpenStudio-resources/measures/openstudio_results/resources/os_lib_reporting.rb:501:in `get'\n/home/julien/Software/Others/OpenStudio-resources/measures/openstudio_results/resources/os_lib_reporting.rb:501:in `block in output_data_end_use_table'\n/home/julien/Software/Others/OpenStudio-resources/measures/openstudio_results/resources/os_lib_reporting.rb:491:in `each'\n/home/julien/Software/Others/OpenStudio-resources/measures/openstudio_results/resources/os_lib_reporting.rb:491:in `output_data_end_use_table'\n/home/julien/Software/Others/OpenStudio-resources/measures/openstudio_results/resources/os_lib_reporting.rb:258:in `annual_overview_section'\n(eval):1:in `block in run'\n/home/julien/Software/Others/OpenStudio-resources/measures/openstudio_results/measure.rb:237:in `eval'\n/home/julien/Software/Others/OpenStudio-resources/measures/openstudio_results/measure.rb:237:in `block in run'\n/home/julien/Software/Others/OpenStudio-resources/measures/openstudio_results/measure.rb:233:in `each'\n/home/julien/Software/Others/OpenStudio-resources/measures/openstudio_results/measure.rb:233:in `run'\n:/ruby/2.7.0/gems/openstudio-workflow-2.2.1/lib/openstudio/workflow/util/measure.rb:521:in `apply_measure'\n:/ruby/2.7.0/gems/openstudio-workflow-2.2.1/lib/openstudio/workflow/util/measure.rb:114:in `block in apply_measures'\n:/ruby/2.7.0/gems/openstudio-workflow-2.2.1/lib/openstudio/workflow/util/measure.rb:67:in `each_index'\n:/ruby/2.7.0/gems/openstudio-workflow-2.2.1/lib/openstudio/workflow/util/measure.rb:67:in `apply_measures'\n:/ruby/2.7.0/gems/openstudio-workflow-2.2.1/lib/openstudio/workflow/jobs/run_reporting_measures.rb:117:in `perform'\n:/ruby/2.7.0/gems/openstudio-workflow-2.2.1/lib/openstudio/workflow/run.rb:287:in `step'\n:/ruby/2.7.0/gems/openstudio-workflow-2.2.1/lib/openstudio/workflow/run.rb:229:in `run'\n:/openstudio_cli.rb:1013:in `execute'\n:/openstudio_cli.rb:803:in `execute'\n:/openstudio_cli.rb:1797:in `<main>'\neval:185:in `eval'\neval:185:in `require_embedded_absolute'\neval:170:in `block in require_embedded'\neval:164:in `each'\neval:164:in `require_embedded'\neval:123:in `require'\neval:3:in `<main>'",
          "Air Loops Detail section failed and was skipped because: undefined method `minimumSetpointTemperature' for #<OpenStudio::Model::OptionalSetpointManagerWarmest:0x0000560df3c4cfa0>. Detail on error follows.",
          "/home/julien/Software/Others/OpenStudio-resources/measures/openstudio_results/resources/os_lib_reporting.rb:878:in `spm_logic'\n/home/julien/Software/Others/OpenStudio-resources/measures/openstudio_results/resources/os_lib_reporting.rb:906:in `air_loop_component_summary_logic'\n/home/julien/Software/Others/OpenStudio-resources/measures/openstudio_results/resources/os_lib_reporting.rb:991:in `block (2 levels) in air_loops_detail_section'\n/home/julien/Software/Others/OpenStudio-resources/measures/openstudio_results/resources/os_lib_reporting.rb:984:in `each'\n/home/julien/Software/Others/OpenStudio-resources/measures/openstudio_results/resources/os_lib_reporting.rb:984:in `block in air_loops_detail_section'\n/home/julien/Software/Others/OpenStudio-resources/measures/openstudio_results/resources/os_lib_reporting.rb:969:in `each'\n/home/julien/Software/Others/OpenStudio-resources/measures/openstudio_results/resources/os_lib_reporting.rb:969:in `air_loops_detail_section'\n(eval):1:in `block in run'\n/home/julien/Software/Others/OpenStudio-resources/measures/openstudio_results/measure.rb:237:in `eval'\n/home/julien/Software/Others/OpenStudio-resources/measures/openstudio_results/measure.rb:237:in `block in run'\n/home/julien/Software/Others/OpenStudio-resources/measures/openstudio_results/measure.rb:233:in `each'\n/home/julien/Software/Others/OpenStudio-resources/measures/openstudio_results/measure.rb:233:in `run'\n:/ruby/2.7.0/gems/openstudio-workflow-2.2.1/lib/openstudio/workflow/util/measure.rb:521:in `apply_measure'\n:/ruby/2.7.0/gems/openstudio-workflow-2.2.1/lib/openstudio/workflow/util/measure.rb:114:in `block in apply_measures'\n:/ruby/2.7.0/gems/openstudio-workflow-2.2.1/lib/openstudio/workflow/util/measure.rb:67:in `each_index'\n:/ruby/2.7.0/gems/openstudio-workflow-2.2.1/lib/openstudio/workflow/util/measure.rb:67:in `apply_measures'\n:/ruby/2.7.0/gems/openstudio-workflow-2.2.1/lib/openstudio/workflow/jobs/run_reporting_measures.rb:117:in `perform'\n:/ruby/2.7.0/gems/openstudio-workflow-2.2.1/lib/openstudio/workflow/run.rb:287:in `step'\n:/ruby/2.7.0/gems/openstudio-workflow-2.2.1/lib/openstudio/workflow/run.rb:229:in `run'\n:/openstudio_cli.rb:1013:in `execute'\n:/openstudio_cli.rb:803:in `execute'\n:/openstudio_cli.rb:1797:in `<main>'\neval:185:in `eval'\neval:185:in `require_embedded_absolute'\neval:170:in `block in require_embedded'\neval:164:in `each'\neval:164:in `require_embedded'\neval:123:in `require'\neval:3:in `<main>'"
        ]
      }
    }
  ],
  "weather_file": "../../weatherdata/USA_IL_Chicago-OHare.Intl.AP.725300_TMY3.epw"
}