{
  "completed_status": "Success",
  "current_step": 1,
  "eplusout_err": [
    "Program Version,EnergyPlus, Version 9.4.0-998c4b761e, ",
    "   ************* Beginning Zone Sizing Calculations",
    "   ** Warning ** ProcessScheduleInput: Schedule:Day:Interval=\"{26757D9F-32A4-44ED-AC8F-2FD6A3D50440}\", Blank Schedule Type Limits Name input -- will not be validated.",
    "   ** Warning ** ProcessScheduleInput: Schedule:Day:Interval=\"{39B044CF-99D2-409F-9D0A-B3F84C4483B3}\", Blank Schedule Type Limits Name input -- will not be validated.",
    "   ** Warning ** ProcessScheduleInput: Schedule:Day:Interval=\"{6841877B-BA5D-4E4D-9DFF-5300E0B8F95D}\", Blank Schedule Type Limits Name input -- will not be validated.",
    "   ** Warning ** ProcessScheduleInput: Schedule:Day:Interval=\"{6BCF0844-BC49-4011-A94E-3A2F512BBF57}\", Blank Schedule Type Limits Name input -- will not be validated.",
    "   ** Warning ** ProcessScheduleInput: Schedule:Day:Interval=\"{71854F2C-B06E-4E17-9BBC-85F024DF5118}\", Blank Schedule Type Limits Name input -- will not be validated.",
    "   ** Warning ** ProcessScheduleInput: Schedule:Day:Interval=\"{73B4AEBF-32CA-476E-9E38-85D3B6A8EEA0}\", Blank Schedule Type Limits Name input -- will not be validated.",
    "   ** Warning ** ProcessScheduleInput: Schedule:Day:Interval=\"{90473802-95DC-4101-A43A-4C4DC7C4ADAD}\", Blank Schedule Type Limits Name input -- will not be validated.",
    "   ** Warning ** ProcessScheduleInput: Schedule:Day:Interval=\"{AC86A64A-F747-4D23-BB1B-990700B1AD88}\", Blank Schedule Type Limits Name input -- will not be validated.",
    "   ** Warning ** ProcessScheduleInput: Schedule:Day:Interval=\"{B5759A87-44DA-47CA-A501-83510D208094}\", Blank Schedule Type Limits Name input -- will not be validated.",
    "   ** Warning ** ProcessScheduleInput: Schedule:Day:Interval=\"{BB0B481D-6D1E-4175-A99D-59DAC1D3042D}\", Blank Schedule Type Limits Name input -- will not be validated.",
    "   ** Warning ** ProcessScheduleInput: Schedule:Day:Interval=\"{C5BED452-FDC5-4FCF-8E10-BBC5AF2463F1}\", Blank Schedule Type Limits Name input -- will not be validated.",
    "   ** Warning ** ProcessScheduleInput: Schedule:Day:Interval=\"{CBBBED1C-CE55-4E91-B414-C6663F8EA290}\", Blank Schedule Type Limits Name input -- will not be validated.",
    "   ** Warning ** ProcessScheduleInput: Schedule:Day:Interval=\"{D7F9FFF3-C7E0-4731-B5C0-A7786EE221A9}\", Blank Schedule Type Limits Name input -- will not be validated.",
    "   ** Warning ** ProcessScheduleInput: Schedule:Day:Interval=\"{F1BC56F3-A7DC-42E5-B59D-FA4006007899}\", Blank Schedule Type Limits Name input -- will not be validated.",
    "   ** Warning ** ProcessScheduleInput: Schedule:Day:Interval=\"{F8B49B44-C751-4E55-A95E-A31C6217FF74}\", Blank Schedule Type Limits Name input -- will not be validated.",
    "   ** Warning ** ProcessScheduleInput: Schedule:Year=\"CORE_BOTTOM TARGET SHW TEMP\", Blank Schedule Type Limits Name input -- will not be validated.",
    "   ** Warning ** ProcessScheduleInput: Schedule:Year=\"CORE_MID TARGET SHW TEMP\", Blank Schedule Type Limits Name input -- will not be validated.",
    "   ** Warning ** ProcessScheduleInput: Schedule:Year=\"CORE_TOP TARGET SHW TEMP\", Blank Schedule Type Limits Name input -- will not be validated.",
    "   ** Warning ** ProcessScheduleInput: Schedule:Year=\"PERIMETER_BOT_ZN_1 TARGET SHW TEMP\", Blank Schedule Type Limits Name input -- will not be validated.",
    "   ** Warning ** ProcessScheduleInput: Schedule:Year=\"PERIMETER_BOT_ZN_2 TARGET SHW TEMP\", Blank Schedule Type Limits Name input -- will not be validated.",
    "   ** Warning ** ProcessScheduleInput: Schedule:Year=\"PERIMETER_BOT_ZN_3 TARGET SHW TEMP\", Blank Schedule Type Limits Name input -- will not be validated.",
    "   ** Warning ** ProcessScheduleInput: Schedule:Year=\"PERIMETER_BOT_ZN_4 TARGET SHW TEMP\", Blank Schedule Type Limits Name input -- will not be validated.",
    "   ** Warning ** ProcessScheduleInput: Schedule:Year=\"PERIMETER_MID_ZN_1 TARGET SHW TEMP\", Blank Schedule Type Limits Name input -- will not be validated.",
    "   ** Warning ** ProcessScheduleInput: Schedule:Year=\"PERIMETER_MID_ZN_2 TARGET SHW TEMP\", Blank Schedule Type Limits Name input -- will not be validated.",
    "   ** Warning ** ProcessScheduleInput: Schedule:Year=\"PERIMETER_MID_ZN_3 TARGET SHW TEMP\", Blank Schedule Type Limits Name input -- will not be validated.",
    "   ** Warning ** ProcessScheduleInput: Schedule:Year=\"PERIMETER_MID_ZN_4 TARGET SHW TEMP\", Blank Schedule Type Limits Name input -- will not be validated.",
    "   ** Warning ** ProcessScheduleInput: Schedule:Year=\"PERIMETER_TOP_ZN_1 TARGET SHW TEMP\", Blank Schedule Type Limits Name input -- will not be validated.",
    "   ** Warning ** ProcessScheduleInput: Schedule:Year=\"PERIMETER_TOP_ZN_2 TARGET SHW TEMP\", Blank Schedule Type Limits Name input -- will not be validated.",
    "   ** Warning ** ProcessScheduleInput: Schedule:Year=\"PERIMETER_TOP_ZN_3 TARGET SHW TEMP\", Blank Schedule Type Limits Name input -- will not be validated.",
    "   ** Warning ** ProcessScheduleInput: Schedule:Year=\"PERIMETER_TOP_ZN_4 TARGET SHW TEMP\", Blank Schedule Type Limits Name input -- will not be validated.",
    "   ** Warning ** ProcessScheduleInput: Schedule:Constant=\"ALWAYS OFF DISCRETE\", Blank Schedule Type Limits Name input -- will not be validated.",
    "   ** Warning ** ProcessScheduleInput: Schedule:Constant=\"ALWAYS ON CONTINUOUS\", Blank Schedule Type Limits Name input -- will not be validated.",
    "   ** Warning ** Weather file location will be used rather than entered (IDF) Location object.",
    "   **   ~~~   ** ..Location object={06E98DB0-E29A-4688-B311-F12D1157B5E1}",
    "   **   ~~~   ** ..Weather File Location=Chicago Ohare Intl Ap IL USA TMY3 WMO#=725300",
    "   **   ~~~   ** ..due to location differences, Latitude difference=[3.40] degrees, Longitude difference=[33.57] degrees.",
    "   **   ~~~   ** ..Time Zone difference=[2.0] hour(s), Elevation difference=[4972.68] percent, [197.04] meters.",
    "   ** Warning ** CalculateZoneVolume: 18 zones are not fully enclosed. For more details use:  Output:Diagnostics,DisplayExtrawarnings; ",
    "   ** Warning ** GetSimpleAirModelInputs: ZoneInfiltration:DesignFlowRate=\"CORE_BOTTOM SPACE INFILTRATION DESIGN FLOW RATE 1\", Design Flow Rate Calculation Method specifies Flow per Exterior Surface Area, but Exterior Wall Area = 0.  0 Infiltration will result.",
    "   ** Warning ** GetSimpleAirModelInputs: ZoneInfiltration:DesignFlowRate=\"CORE_MID SPACE INFILTRATION DESIGN FLOW RATE 1\", Design Flow Rate Calculation Method specifies Flow per Exterior Surface Area, but Exterior Wall Area = 0.  0 Infiltration will result.",
    "   ** Warning ** GetSimpleAirModelInputs: ZoneInfiltration:DesignFlowRate=\"CORE_TOP SPACE INFILTRATION DESIGN FLOW RATE 1\", Design Flow Rate Calculation Method specifies Flow per Exterior Surface Area, but Exterior Wall Area = 0.  0 Infiltration will result.",
    "   ************* Beginning System Sizing Calculations",
    "   ** Warning ** Since Zone Minimum Air Flow Input Method = FIXEDFLOWRATE, input for Constant Minimum Air Flow Fraction will be ignored.",
    "   **   ~~~   ** Occurs in AirTerminal:SingleDuct:VAV:Reheat = COREBOTTOMZN TU",
    "   ** Warning ** Since Damper Heating Action = REVERSE, input for Maximum Flow Fraction During Reheat will be ignored.",
    "   **   ~~~   ** Occurs in AirTerminal:SingleDuct:VAV:Reheat = COREBOTTOMZN TU",
    "   ** Warning ** Since Zone Minimum Air Flow Input Method = FIXEDFLOWRATE, input for Constant Minimum Air Flow Fraction will be ignored.",
    "   **   ~~~   ** Occurs in AirTerminal:SingleDuct:VAV:Reheat = COREMIDZN TU",
    "   ** Warning ** Since Damper Heating Action = REVERSE, input for Maximum Flow Fraction During Reheat will be ignored.",
    "   **   ~~~   ** Occurs in AirTerminal:SingleDuct:VAV:Reheat = COREMIDZN TU",
    "   ** Warning ** Since Zone Minimum Air Flow Input Method = FIXEDFLOWRATE, input for Constant Minimum Air Flow Fraction will be ignored.",
    "   **   ~~~   ** Occurs in AirTerminal:SingleDuct:VAV:Reheat = CORE TOP ZN TU",
    "   ** Warning ** Since Damper Heating Action = REVERSE, input for Maximum Flow Fraction During Reheat will be ignored.",
    "   **   ~~~   ** Occurs in AirTerminal:SingleDuct:VAV:Reheat = CORE TOP ZN TU",
    "   ** Warning ** Since Zone Minimum Air Flow Input Method = FIXEDFLOWRATE, input for Constant Minimum Air Flow Fraction will be ignored.",
    "   **   ~~~   ** Occurs in AirTerminal:SingleDuct:VAV:Reheat = PERIMETERBOTTOMZN1 TU",
    "   ** Warning ** Since Damper Heating Action = REVERSE, input for Maximum Flow Fraction During Reheat will be ignored.",
    "   **   ~~~   ** Occurs in AirTerminal:SingleDuct:VAV:Reheat = PERIMETERBOTTOMZN1 TU",
    "   ** Warning ** Since Zone Minimum Air Flow Input Method = FIXEDFLOWRATE, input for Constant Minimum Air Flow Fraction will be ignored.",
    "   **   ~~~   ** Occurs in AirTerminal:SingleDuct:VAV:Reheat = PERIMETERBOTTOMZN2 TU",
    "   ** Warning ** Since Damper Heating Action = REVERSE, input for Maximum Flow Fraction During Reheat will be ignored.",
    "   **   ~~~   ** Occurs in AirTerminal:SingleDuct:VAV:Reheat = PERIMETERBOTTOMZN2 TU",
    "   ** Warning ** Since Zone Minimum Air Flow Input Method = FIXEDFLOWRATE, input for Constant Minimum Air Flow Fraction will be ignored.",
    "   **   ~~~   ** Occurs in AirTerminal:SingleDuct:VAV:Reheat = PERIMETERBOTTOMZN3 TU",
    "   ** Warning ** Since Damper Heating Action = REVERSE, input for Maximum Flow Fraction During Reheat will be ignored.",
    "   **   ~~~   ** Occurs in AirTerminal:SingleDuct:VAV:Reheat = PERIMETERBOTTOMZN3 TU",
    "   ** Warning ** Since Zone Minimum Air Flow Input Method = FIXEDFLOWRATE, input for Constant Minimum Air Flow Fraction will be ignored.",
    "   **   ~~~   ** Occurs in AirTerminal:SingleDuct:VAV:Reheat = PERIMETERBOTTOMZN4 TU",
    "   ** Warning ** Since Damper Heating Action = REVERSE, input for Maximum Flow Fraction During Reheat will be ignored.",
    "   **   ~~~   ** Occurs in AirTerminal:SingleDuct:VAV:Reheat = PERIMETERBOTTOMZN4 TU",
    "   ** Warning ** Since Zone Minimum Air Flow Input Method = FIXEDFLOWRATE, input for Constant Minimum Air Flow Fraction will be ignored.",
    "   **   ~~~   ** Occurs in AirTerminal:SingleDuct:VAV:Reheat = PERIMETERMIDZN1 TU",
    "   ** Warning ** Since Damper Heating Action = REVERSE, input for Maximum Flow Fraction During Reheat will be ignored.",
    "   **   ~~~   ** Occurs in AirTerminal:SingleDuct:VAV:Reheat = PERIMETERMIDZN1 TU",
    "   ** Warning ** Since Zone Minimum Air Flow Input Method = FIXEDFLOWRATE, input for Constant Minimum Air Flow Fraction will be ignored.",
    "   **   ~~~   ** Occurs in AirTerminal:SingleDuct:VAV:Reheat = PERIMETERMIDZN2 TU",
    "   ** Warning ** Since Damper Heating Action = REVERSE, input for Maximum Flow Fraction During Reheat will be ignored.",
    "   **   ~~~   ** Occurs in AirTerminal:SingleDuct:VAV:Reheat = PERIMETERMIDZN2 TU",
    "   ** Warning ** Since Zone Minimum Air Flow Input Method = FIXEDFLOWRATE, input for Constant Minimum Air Flow Fraction will be ignored.",
    "   **   ~~~   ** Occurs in AirTerminal:SingleDuct:VAV:Reheat = PERIMETERMIDZN3 TU",
    "   ** Warning ** Since Damper Heating Action = REVERSE, input for Maximum Flow Fraction During Reheat will be ignored.",
    "   **   ~~~   ** Occurs in AirTerminal:SingleDuct:VAV:Reheat = PERIMETERMIDZN3 TU",
    "   ** Warning ** Since Zone Minimum Air Flow Input Method = FIXEDFLOWRATE, input for Constant Minimum Air Flow Fraction will be ignored.",
    "   **   ~~~   ** Occurs in AirTerminal:SingleDuct:VAV:Reheat = PERIMETERMIDZN4 TU",
    "   ** Warning ** Since Damper Heating Action = REVERSE, input for Maximum Flow Fraction During Reheat will be ignored.",
    "   **   ~~~   ** Occurs in AirTerminal:SingleDuct:VAV:Reheat = PERIMETERMIDZN4 TU",
    "   ** Warning ** Since Zone Minimum Air Flow Input Method = FIXEDFLOWRATE, input for Constant Minimum Air Flow Fraction will be ignored.",
    "   **   ~~~   ** Occurs in AirTerminal:SingleDuct:VAV:Reheat = PERIMETERTOPZN1 TU",
    "   ** Warning ** Since Damper Heating Action = REVERSE, input for Maximum Flow Fraction During Reheat will be ignored.",
    "   **   ~~~   ** Occurs in AirTerminal:SingleDuct:VAV:Reheat = PERIMETERTOPZN1 TU",
    "   ** Warning ** Since Zone Minimum Air Flow Input Method = FIXEDFLOWRATE, input for Constant Minimum Air Flow Fraction will be ignored.",
    "   **   ~~~   ** Occurs in AirTerminal:SingleDuct:VAV:Reheat = PERIMETERTOPZN2 TU",
    "   ** Warning ** Since Damper Heating Action = REVERSE, input for Maximum Flow Fraction During Reheat will be ignored.",
    "   **   ~~~   ** Occurs in AirTerminal:SingleDuct:VAV:Reheat = PERIMETERTOPZN2 TU",
    "   ** Warning ** Since Zone Minimum Air Flow Input Method = FIXEDFLOWRATE, input for Constant Minimum Air Flow Fraction will be ignored.",
    "   **   ~~~   ** Occurs in AirTerminal:SingleDuct:VAV:Reheat = PERIMETERTOPZN3 TU",
    "   ** Warning ** Since Damper Heating Action = REVERSE, input for Maximum Flow Fraction During Reheat will be ignored.",
    "   **   ~~~   ** Occurs in AirTerminal:SingleDuct:VAV:Reheat = PERIMETERTOPZN3 TU",
    "   ** Warning ** Since Zone Minimum Air Flow Input Method = FIXEDFLOWRATE, input for Constant Minimum Air Flow Fraction will be ignored.",
    "   **   ~~~   ** Occurs in AirTerminal:SingleDuct:VAV:Reheat = PERIMETERTOPZN4 TU",
    "   ** Warning ** Since Damper Heating Action = REVERSE, input for Maximum Flow Fraction During Reheat will be ignored.",
    "   **   ~~~   ** Occurs in AirTerminal:SingleDuct:VAV:Reheat = PERIMETERTOPZN4 TU",
    "   ************* Beginning Plant Sizing Calculations",
    "   ** Warning ** GetOAControllerInputs: Controller:MechanicalVentilation=\"BOTTOMVAV ECONOMIZER MECH VENT CONTROLLER",
    "   **   ~~~   ** Cannot locate a matching DesignSpecification:ZoneAirDistribution object for Zone=\"CORE_BOTTOM THERMAL ZONE\".",
    "   **   ~~~   ** Using default zone air distribution effectiveness of 1.0 for heating and cooling.",
    "   ** Warning ** GetOAControllerInputs: Controller:MechanicalVentilation=\"BOTTOMVAV ECONOMIZER MECH VENT CONTROLLER",
    "   **   ~~~   ** Cannot locate a matching DesignSpecification:ZoneAirDistribution object for Zone=\"PERIMETER_BOT_ZN_1 THERMAL ZONE\".",
    "   **   ~~~   ** Using default zone air distribution effectiveness of 1.0 for heating and cooling.",
    "   ** Warning ** GetOAControllerInputs: Controller:MechanicalVentilation=\"BOTTOMVAV ECONOMIZER MECH VENT CONTROLLER",
    "   **   ~~~   ** Cannot locate a matching DesignSpecification:ZoneAirDistribution object for Zone=\"PERIMETER_BOT_ZN_2 THERMAL ZONE\".",
    "   **   ~~~   ** Using default zone air distribution effectiveness of 1.0 for heating and cooling.",
    "   ** Warning ** GetOAControllerInputs: Controller:MechanicalVentilation=\"BOTTOMVAV ECONOMIZER MECH VENT CONTROLLER",
    "   **   ~~~   ** Cannot locate a matching DesignSpecification:ZoneAirDistribution object for Zone=\"PERIMETER_BOT_ZN_3 THERMAL ZONE\".",
    "   **   ~~~   ** Using default zone air distribution effectiveness of 1.0 for heating and cooling.",
    "   ** Warning ** GetOAControllerInputs: Controller:MechanicalVentilation=\"BOTTOMVAV ECONOMIZER MECH VENT CONTROLLER",
    "   **   ~~~   ** Cannot locate a matching DesignSpecification:ZoneAirDistribution object for Zone=\"PERIMETER_BOT_ZN_4 THERMAL ZONE\".",
    "   **   ~~~   ** Using default zone air distribution effectiveness of 1.0 for heating and cooling.",
    "   ** Warning ** GetOAControllerInputs: Controller:MechanicalVentilation=\"MIDVAV OACTRL MECH VENT CONTROLLER",
    "   **   ~~~   ** Cannot locate a matching DesignSpecification:ZoneAirDistribution object for Zone=\"CORE_MID THERMAL ZONE\".",
    "   **   ~~~   ** Using default zone air distribution effectiveness of 1.0 for heating and cooling.",
    "   ** Warning ** GetOAControllerInputs: Controller:MechanicalVentilation=\"MIDVAV OACTRL MECH VENT CONTROLLER",
    "   **   ~~~   ** Cannot locate a matching DesignSpecification:ZoneAirDistribution object for Zone=\"PERIMETER_MID_ZN_1 THERMAL ZONE\".",
    "   **   ~~~   ** Using default zone air distribution effectiveness of 1.0 for heating and cooling.",
    "   ** Warning ** GetOAControllerInputs: Controller:MechanicalVentilation=\"MIDVAV OACTRL MECH VENT CONTROLLER",
    "   **   ~~~   ** Cannot locate a matching DesignSpecification:ZoneAirDistribution object for Zone=\"PERIMETER_MID_ZN_2 THERMAL ZONE\".",
    "   **   ~~~   ** Using default zone air distribution effectiveness of 1.0 for heating and cooling.",
    "   ** Warning ** GetOAControllerInputs: Controller:MechanicalVentilation=\"MIDVAV OACTRL MECH VENT CONTROLLER",
    "   **   ~~~   ** Cannot locate a matching DesignSpecification:ZoneAirDistribution object for Zone=\"PERIMETER_MID_ZN_3 THERMAL ZONE\".",
    "   **   ~~~   ** Using default zone air distribution effectiveness of 1.0 for heating and cooling.",
    "   ** Warning ** GetOAControllerInputs: Controller:MechanicalVentilation=\"MIDVAV OACTRL MECH VENT CONTROLLER",
    "   **   ~~~   ** Cannot locate a matching DesignSpecification:ZoneAirDistribution object for Zone=\"PERIMETER_MID_ZN_4 THERMAL ZONE\".",
    "   **   ~~~   ** Using default zone air distribution effectiveness of 1.0 for heating and cooling.",
    "   ** Warning ** GetOAControllerInputs: Controller:MechanicalVentilation=\"TOP VAV OACTRL MECH VENT CONTROLLER",
    "   **   ~~~   ** Cannot locate a matching DesignSpecification:ZoneAirDistribution object for Zone=\"CORE_TOP THERMAL ZONE\".",
    "   **   ~~~   ** Using default zone air distribution effectiveness of 1.0 for heating and cooling.",
    "   ** Warning ** GetOAControllerInputs: Controller:MechanicalVentilation=\"TOP VAV OACTRL MECH VENT CONTROLLER",
    "   **   ~~~   ** Cannot locate a matching DesignSpecification:ZoneAirDistribution object for Zone=\"PERIMETER_TOP_ZN_1 THERMAL ZONE\".",
    "   **   ~~~   ** Using default zone air distribution effectiveness of 1.0 for heating and cooling.",
    "   ** Warning ** GetOAControllerInputs: Controller:MechanicalVentilation=\"TOP VAV OACTRL MECH VENT CONTROLLER",
    "   **   ~~~   ** Cannot locate a matching DesignSpecification:ZoneAirDistribution object for Zone=\"PERIMETER_TOP_ZN_2 THERMAL ZONE\".",
    "   **   ~~~   ** Using default zone air distribution effectiveness of 1.0 for heating and cooling.",
    "   ** Warning ** GetOAControllerInputs: Controller:MechanicalVentilation=\"TOP VAV OACTRL MECH VENT CONTROLLER",
    "   **   ~~~   ** Cannot locate a matching DesignSpecification:ZoneAirDistribution object for Zone=\"PERIMETER_TOP_ZN_3 THERMAL ZONE\".",
    "   **   ~~~   ** Using default zone air distribution effectiveness of 1.0 for heating and cooling.",
    "   ** Warning ** GetOAControllerInputs: Controller:MechanicalVentilation=\"TOP VAV OACTRL MECH VENT CONTROLLER",
    "   **   ~~~   ** Cannot locate a matching DesignSpecification:ZoneAirDistribution object for Zone=\"PERIMETER_TOP_ZN_4 THERMAL ZONE\".",
    "   **   ~~~   ** Using default zone air distribution effectiveness of 1.0 for heating and cooling.",
    "   ** Warning ** Check input. Pump nominal power or motor efficiency is set to 0, for pump={53185CC8-EC54-411C-99BA-E8E93DB6BCE8}",
    "   ** Warning ** Output:Meter: invalid Key Name=\"DISTRICTCOOLING:FACILITY\" - not found.",
    "   ** Warning ** Output:Meter: invalid Key Name=\"DISTRICTHEATING:FACILITY\" - not found.",
    "   ** Warning ** Output:Meter:MeterFileOnly: invalid Key Name=\"COAL:FACILITY\" - not found.",
    "   ** Warning ** Output:Meter:MeterFileOnly: invalid Key Name=\"COGENERATION:COAL\" - not found.",
    "   ** Warning ** Output:Meter:MeterFileOnly: invalid Key Name=\"COGENERATION:DISTRICTCOOLING\" - not found.",
    "   ** Warning ** Output:Meter:MeterFileOnly: invalid Key Name=\"COGENERATION:DISTRICTHEATING\" - not found.",
    "   ** Warning ** Output:Meter:MeterFileOnly: invalid Key Name=\"COGENERATION:ELECTRICITY\" - not found.",
    "   ** Warning ** Output:Meter:MeterFileOnly: invalid Key Name=\"COGENERATION:NATURALGAS\" - not found.",
    "   ** Warning ** Output:Meter:MeterFileOnly: invalid Key Name=\"COOLING:COAL\" - not found.",
    "   ** Warning ** Output:Meter:MeterFileOnly: invalid Key Name=\"COOLING:DISTRICTCOOLING\" - not found.",
    "   ** Warning ** Output:Meter:MeterFileOnly: invalid Key Name=\"COOLING:DISTRICTHEATING\" - not found.",
    "   ** Warning ** Output:Meter:MeterFileOnly: invalid Key Name=\"COOLING:NATURALGAS\" - not found.",
    "   ** Warning ** Output:Meter:MeterFileOnly: invalid Key Name=\"DISTRICTCOOLING:FACILITY\" - not found.",
    "   ** Warning ** Output:Meter:MeterFileOnly: invalid Key Name=\"DISTRICTHEATING:FACILITY\" - not found.",
    "   ** Warning ** Output:Meter:MeterFileOnly: invalid Key Name=\"EXTERIOREQUIPMENT:COAL\" - not found.",
    "   ** Warning ** Output:Meter:MeterFileOnly: invalid Key Name=\"EXTERIOREQUIPMENT:DISTRICTCOOLING\" - not found.",
    "   ** Warning ** Output:Meter:MeterFileOnly: invalid Key Name=\"EXTERIOREQUIPMENT:DISTRICTHEATING\" - not found.",
    "   ** Warning ** Output:Meter:MeterFileOnly: invalid Key Name=\"EXTERIOREQUIPMENT:ELECTRICITY\" - not found.",
    "   ** Warning ** Output:Meter:MeterFileOnly: invalid Key Name=\"EXTERIOREQUIPMENT:NATURALGAS\" - not found.",
    "   ** Warning ** Output:Meter:MeterFileOnly: invalid Key Name=\"EXTERIORLIGHTS:COAL\" - not found.",
    "   ** Warning ** Output:Meter:MeterFileOnly: invalid Key Name=\"EXTERIORLIGHTS:DISTRICTCOOLING\" - not found.",
    "   ** Warning ** Output:Meter:MeterFileOnly: invalid Key Name=\"EXTERIORLIGHTS:DISTRICTHEATING\" - not found.",
    "   ** Warning ** Output:Meter:MeterFileOnly: invalid Key Name=\"EXTERIORLIGHTS:ELECTRICITY\" - not found.",
    "   ** Warning ** Output:Meter:MeterFileOnly: invalid Key Name=\"EXTERIORLIGHTS:NATURALGAS\" - not found.",
    "   ** Warning ** Output:Meter:MeterFileOnly: invalid Key Name=\"FANS:COAL\" - not found.",
    "   ** Warning ** Output:Meter:MeterFileOnly: invalid Key Name=\"FANS:DISTRICTCOOLING\" - not found.",
    "   ** Warning ** Output:Meter:MeterFileOnly: invalid Key Name=\"FANS:DISTRICTHEATING\" - not found.",
    "   ** Warning ** Output:Meter:MeterFileOnly: invalid Key Name=\"FANS:NATURALGAS\" - not found.",
    "   ** Warning ** Output:Meter:MeterFileOnly: invalid Key Name=\"HEATING:COAL\" - not found.",
    "   ** Warning ** Output:Meter:MeterFileOnly: invalid Key Name=\"HEATING:DISTRICTCOOLING\" - not found.",
    "   ** Warning ** Output:Meter:MeterFileOnly: invalid Key Name=\"HEATING:DISTRICTHEATING\" - not found.",
    "   ** Warning ** Output:Meter:MeterFileOnly: invalid Key Name=\"HEATRECOVERY:COAL\" - not found.",
    "   ** Warning ** Output:Meter:MeterFileOnly: invalid Key Name=\"HEATRECOVERY:DISTRICTCOOLING\" - not found.",
    "   ** Warning ** Output:Meter:MeterFileOnly: invalid Key Name=\"HEATRECOVERY:DISTRICTHEATING\" - not found.",
    "   ** Warning ** Output:Meter:MeterFileOnly: invalid Key Name=\"HEATRECOVERY:ELECTRICITY\" - not found.",
    "   ** Warning ** Output:Meter:MeterFileOnly: invalid Key Name=\"HEATRECOVERY:NATURALGAS\" - not found.",
    "   ** Warning ** Output:Meter:MeterFileOnly: invalid Key Name=\"HEATREJECTION:COAL\" - not found.",
    "   ** Warning ** Output:Meter:MeterFileOnly: invalid Key Name=\"HEATREJECTION:DISTRICTCOOLING\" - not found.",
    "   ** Warning ** Output:Meter:MeterFileOnly: invalid Key Name=\"HEATREJECTION:DISTRICTHEATING\" - not found.",
    "   ** Warning ** Output:Meter:MeterFileOnly: invalid Key Name=\"HEATREJECTION:ELECTRICITY\" - not found.",
    "   ** Warning ** Output:Meter:MeterFileOnly: invalid Key Name=\"HEATREJECTION:NATURALGAS\" - not found.",
    "   ** Warning ** Output:Meter:MeterFileOnly: invalid Key Name=\"HUMIDIFIER:COAL\" - not found.",
    "   ** Warning ** Output:Meter:MeterFileOnly: invalid Key Name=\"HUMIDIFIER:DISTRICTCOOLING\" - not found.",
    "   ** Warning ** Output:Meter:MeterFileOnly: invalid Key Name=\"HUMIDIFIER:DISTRICTHEATING\" - not found.",
    "   ** Warning ** Output:Meter:MeterFileOnly: invalid Key Name=\"HUMIDIFIER:ELECTRICITY\" - not found.",
    "   ** Warning ** Output:Meter:MeterFileOnly: invalid Key Name=\"HUMIDIFIER:NATURALGAS\" - not found.",
    "   ** Warning ** Output:Meter:MeterFileOnly: invalid Key Name=\"INTERIOREQUIPMENT:COAL\" - not found.",
    "   ** Warning ** Output:Meter:MeterFileOnly: invalid Key Name=\"INTERIOREQUIPMENT:DISTRICTCOOLING\" - not found.",
    "   ** Warning ** Output:Meter:MeterFileOnly: invalid Key Name=\"INTERIOREQUIPMENT:DISTRICTHEATING\" - not found.",
    "   ** Warning ** Output:Meter:MeterFileOnly: invalid Key Name=\"INTERIOREQUIPMENT:NATURALGAS\" - not found.",
    "   ** Warning ** Output:Meter:MeterFileOnly: invalid Key Name=\"INTERIORLIGHTS:COAL\" - not found.",
    "   ** Warning ** Output:Meter:MeterFileOnly: invalid Key Name=\"INTERIORLIGHTS:DISTRICTCOOLING\" - not found.",
    "   ** Warning ** Output:Meter:MeterFileOnly: invalid Key Name=\"INTERIORLIGHTS:DISTRICTHEATING\" - not found.",
    "   ** Warning ** Output:Meter:MeterFileOnly: invalid Key Name=\"INTERIORLIGHTS:NATURALGAS\" - not found.",
    "   ** Warning ** Output:Meter:MeterFileOnly: invalid Key Name=\"INTERNAL TRANSPORT:INTERIOREQUIPMENT:ELECTRICITY\" - not found.",
    "   ** Warning ** Output:Meter:MeterFileOnly: invalid Key Name=\"NONCOMPLIANCELTG:INTERIORLIGHTS:ELECTRICITY\" - not found.",
    "   ** Warning ** Output:Meter:MeterFileOnly: invalid Key Name=\"NONREG LTG:EXTERIORLIGHTS:ELECTRICITY\" - not found.",
    "   ** Warning ** Output:Meter:MeterFileOnly: invalid Key Name=\"PROCESS:EXTERIOREQUIPMENT:ELECTRICITY\" - not found.",
    "   ** Warning ** Output:Meter:MeterFileOnly: invalid Key Name=\"PROCESS:EXTERIOREQUIPMENT:NATURALGAS\" - not found.",
    "   ** Warning ** Output:Meter:MeterFileOnly: invalid Key Name=\"PROCESS:INTERIOREQUIPMENT:ELECTRICITY\" - not found.",
    "   ** Warning ** Output:Meter:MeterFileOnly: invalid Key Name=\"PROCESS:INTERIOREQUIPMENT:NATURALGAS\" - not found.",
    "   ** Warning ** Output:Meter:MeterFileOnly: invalid Key Name=\"PUMPS:COAL\" - not found.",
    "   ** Warning ** Output:Meter:MeterFileOnly: invalid Key Name=\"PUMPS:DISTRICTCOOLING\" - not found.",
    "   ** Warning ** Output:Meter:MeterFileOnly: invalid Key Name=\"PUMPS:DISTRICTHEATING\" - not found.",
    "   ** Warning ** Output:Meter:MeterFileOnly: invalid Key Name=\"PUMPS:NATURALGAS\" - not found.",
    "   ** Warning ** Output:Meter:MeterFileOnly: invalid Key Name=\"RECEPTACLE:EXTERIOREQUIPMENT:ELECTRICITY\" - not found.",
    "   ** Warning ** Output:Meter:MeterFileOnly: invalid Key Name=\"RECEPTACLE:EXTERIOREQUIPMENT:NATURALGAS\" - not found.",
    "   ** Warning ** Output:Meter:MeterFileOnly: invalid Key Name=\"RECEPTACLE:INTERIOREQUIPMENT:NATURALGAS\" - not found.",
    "   ** Warning ** Output:Meter:MeterFileOnly: invalid Key Name=\"REFRIG:EXTERIOREQUIPMENT:ELECTRICITY\" - not found.",
    "   ** Warning ** Output:Meter:MeterFileOnly: invalid Key Name=\"REFRIG:INTERIOREQUIPMENT:ELECTRICITY\" - not found.",
    "   ** Warning ** Output:Meter:MeterFileOnly: invalid Key Name=\"REFRIGERATION:COAL\" - not found.",
    "   ** Warning ** Output:Meter:MeterFileOnly: invalid Key Name=\"REFRIGERATION:DISTRICTCOOLING\" - not found.",
    "   ** Warning ** Output:Meter:MeterFileOnly: invalid Key Name=\"REFRIGERATION:DISTRICTHEATING\" - not found.",
    "   ** Warning ** Output:Meter:MeterFileOnly: invalid Key Name=\"REFRIGERATION:ELECTRICITY\" - not found.",
    "   ** Warning ** Output:Meter:MeterFileOnly: invalid Key Name=\"REFRIGERATION:NATURALGAS\" - not found.",
    "   ** Warning ** Output:Meter:MeterFileOnly: invalid Key Name=\"REG LTG:EXTERIORLIGHTS:ELECTRICITY\" - not found.",
    "   ** Warning ** Output:Meter:MeterFileOnly: invalid Key Name=\"WATERSYSTEMS:COAL\" - not found.",
    "   ** Warning ** Output:Meter:MeterFileOnly: invalid Key Name=\"WATERSYSTEMS:DISTRICTCOOLING\" - not found.",
    "   ** Warning ** Output:Meter:MeterFileOnly: invalid Key Name=\"WATERSYSTEMS:DISTRICTHEATING\" - not found.",
    "   ** Warning ** Output:Meter:MeterFileOnly: invalid Key Name=\"WATERSYSTEMS:ELECTRICITY\" - not found.",
    "   ** Warning ** Output:Meter:MeterFileOnly requested for \"Electricity:Facility\" (TimeStep), already on \"Output:Meter\". Will report to both eplusout.eso and eplusout.mtr",
    "   ************* Testing Individual Branch Integrity",
    "   ************* All Branches passed integrity testing",
    "   ************* Testing Individual Supply Air Path Integrity",
    "   ************* All Supply Air Paths passed integrity testing",
    "   ************* Testing Individual Return Air Path Integrity",
    "   ************* All Return Air Paths passed integrity testing",
    "   ************* No node connection errors were found.",
    "   ************* Beginning Simulation",
    "   ** Warning ** Processing Monthly Tabular Reports: Variable names not valid for this simulation",
    "   **   ~~~   ** ...use Output:Diagnostics,DisplayExtraWarnings; to show more details on individual variables.",
    "   ** Warning ** SimHVAC: Maximum iterations (20) exceeded for all HVAC loops, at SACRAMENTO-EXECUTIVE_724830_CZ2010, 01/05 06:00 - 06:15",
    "   **   ~~~   ** The solution for one or more of the Air Loop HVAC systems did not appear to converge",
    "   **   ~~~   ** The solution for one or more plant systems did not appear to converge",
    "   **   ~~~   ** ...use Output:Diagnostics,DisplayExtraWarnings; to show more details on each max iteration exceeded.",
    "   ** Warning ** SimHVAC: Maximum iterations (20) exceeded for all HVAC loops, at SACRAMENTO-EXECUTIVE_724830_CZ2010, 01/05 06:45 - 06:49",
    "   **   ~~~   ** The solution for one or more of the Air Loop HVAC systems did not appear to converge",
    "   ** Warning ** SimHVAC: Maximum iterations (20) exceeded for all HVAC loops, at SACRAMENTO-EXECUTIVE_724830_CZ2010, 01/05 07:00 - 07:15",
    "   **   ~~~   ** The solution for one or more of the Air Loop HVAC systems did not appear to converge",
    "   **   ~~~   ** The solution for one or more plant systems did not appear to converge",
    "   ** Warning ** SimHVAC: Maximum iterations (20) exceeded for all HVAC loops, at SACRAMENTO-EXECUTIVE_724830_CZ2010, 01/05 07:05 - 07:10",
    "   **   ~~~   ** The solution for one or more of the Air Loop HVAC systems did not appear to converge",
    "   **   ~~~   ** The solution for one or more plant systems did not appear to converge",
    "   ** Warning ** SimHVAC: Maximum iterations (20) exceeded for all HVAC loops, at SACRAMENTO-EXECUTIVE_724830_CZ2010, 01/05 07:15 - 07:30",
    "   **   ~~~   ** The solution for one or more of the Air Loop HVAC systems did not appear to converge",
    "   **   ~~~   ** The solution for one or more plant systems did not appear to converge",
    "   ** Warning ** SimHVAC: Maximum iterations (20) exceeded for all HVAC loops, at SACRAMENTO-EXECUTIVE_724830_CZ2010, 01/05 07:23 - 07:26",
    "   **   ~~~   ** The solution for one or more of the Air Loop HVAC systems did not appear to converge",
    "   ** Warning ** SimHVAC: Maximum iterations (20) exceeded for all HVAC loops, at SACRAMENTO-EXECUTIVE_724830_CZ2010, 01/05 07:30 - 07:38",
    "   **   ~~~   ** The solution for one or more of the Air Loop HVAC systems did not appear to converge",
    "   **   ~~~   ** The solution for one or more plant systems did not appear to converge",
    "   ** Warning ** SimHVAC: Maximum iterations (20) exceeded for all HVAC loops, at SACRAMENTO-EXECUTIVE_724830_CZ2010, 01/05 07:38 - 07:45",
    "   **   ~~~   ** The solution for one or more of the Air Loop HVAC systems did not appear to converge",
    "   **   ~~~   ** The solution for one or more plant systems did not appear to converge",
    "   ** Warning ** SimHVAC: Maximum iterations (20) exceeded for all HVAC loops, at SACRAMENTO-EXECUTIVE_724830_CZ2010, 01/05 07:45 - 08:00",
    "   **   ~~~   ** The solution for one or more of the Air Loop HVAC systems did not appear to converge",
    "   **   ~~~   ** The solution for one or more plant systems did not appear to converge",
    "   ** Warning ** SimHVAC: Maximum iterations (20) exceeded for all HVAC loops, at SACRAMENTO-EXECUTIVE_724830_CZ2010, 01/05 07:45 - 07:52",
    "   **   ~~~   ** The solution for one or more of the Air Loop HVAC systems did not appear to converge",
    "   **   ~~~   ** The solution for one or more plant systems did not appear to converge",
    "   ** Warning ** SimHVAC: Maximum iterations (20) exceeded for all HVAC loops, at SACRAMENTO-EXECUTIVE_724830_CZ2010, 01/05 07:53 - 08:00",
    "   **   ~~~   ** The solution for one or more of the Air Loop HVAC systems did not appear to converge",
    "   **   ~~~   ** The solution for one or more plant systems did not appear to converge",
    "   ** Warning ** SimHVAC: Maximum iterations (20) exceeded for all HVAC loops, at SACRAMENTO-EXECUTIVE_724830_CZ2010, 01/06 06:00 - 06:15",
    "   **   ~~~   ** The solution for one or more of the Air Loop HVAC systems did not appear to converge",
    "   **   ~~~   ** The solution for one or more plant systems did not appear to converge",
    "   ** Warning ** SimHVAC: Maximum iterations (20) exceeded for all HVAC loops, at SACRAMENTO-EXECUTIVE_724830_CZ2010, 01/06 06:00 - 06:08",
    "   **   ~~~   ** The solution for one or more of the Air Loop HVAC systems did not appear to converge",
    "   ** Warning ** SimHVAC: Maximum iterations (20) exceeded for all HVAC loops, at SACRAMENTO-EXECUTIVE_724830_CZ2010, 01/06 06:08 - 06:15",
    "   **   ~~~   ** The solution for one or more of the Air Loop HVAC systems did not appear to converge",
    "   **   ~~~   ** The solution for one or more plant systems did not appear to converge",
    "   ** Warning ** Temperature out of range [-100. to 200.] (PsyPsatFnTemp)",
    "   **   ~~~   **  Routine=PsyTwbFnTdbWPb, Environment=SACRAMENTO-EXECUTIVE_724830_CZ2010, at Simulation time=01/06 06:23 - 06:30",
    "   **   ~~~   **  Input Temperature=-102.33",
    "   ** Warning ** WetBulb not converged after 101 iterations(PsyTwbFnTdbWPb)",
    "   **   ~~~   **  Routine=Unknown, Environment=SACRAMENTO-EXECUTIVE_724830_CZ2010, at Simulation time=02/13 18:23 - 18:30",
    "   **   ~~~   **  Input Temperature = 3.34",
    "   **   ~~~   **  Input Humidity Ratio= 2.537781E-003",
    "   **   ~~~   **  Input Pressure = 98250.00",
    "   **   ~~~   **  Resultant Temperature= -0.30",
    "   ** Warning ** The resource referenced by LifeCycleCost:UsePriceEscalation= \"U.S. AVG  COMMERCIAL-ELECTRICITY\" has no energy cost. ",
    "   **   ~~~   ** ... It is likely that the wrong resource is used. The resource should match the meter used in Utility:Tariff.",
    "   ** Warning ** The resource referenced by LifeCycleCost:UsePriceEscalation= \"U.S. AVG  COMMERCIAL-DISTILLATE OIL\" has no energy cost. ",
    "   **   ~~~   ** ... It is likely that the wrong resource is used. The resource should match the meter used in Utility:Tariff.",
    "   ** Warning ** The resource referenced by LifeCycleCost:UsePriceEscalation= \"U.S. AVG  COMMERCIAL-RESIDUAL OIL\" has no energy cost. ",
    "   **   ~~~   ** ... It is likely that the wrong resource is used. The resource should match the meter used in Utility:Tariff.",
    "   ** Warning ** The resource referenced by LifeCycleCost:UsePriceEscalation= \"U.S. AVG  COMMERCIAL-NATURAL GAS\" has no energy cost. ",
    "   **   ~~~   ** ... It is likely that the wrong resource is used. The resource should match the meter used in Utility:Tariff.",
    "   ** Warning ** The resource referenced by LifeCycleCost:UsePriceEscalation= \"U.S. AVG  COMMERCIAL-COAL\" has no energy cost. ",
    "   **   ~~~   ** ... It is likely that the wrong resource is used. The resource should match the meter used in Utility:Tariff.",
    "   ************* Simulation Error Summary *************",
    "   ************* There are 10 unused schedules in input.",
    "   ************* There are 6 unused week schedules in input.",
    "   ************* There are 10 unused day schedules in input.",
    "   ************* Use Output:Diagnostics,DisplayUnusedSchedules; to see them.",
    "   *************",
    "   ************* ===== Recurring Surface Error Summary =====",
    "   ************* The following surface error messages occurred.",
    "   *************",
    "   ************* Base Surface does not surround subsurface errors occuring...",
    "   ************* Check that the GlobalGeometryRules object is expressing the proper starting corner and direction [CounterClockwise/Clockwise]",
    "   *************",
    "   ** Warning ** Base surface does not surround subsurface (CHKSBS), Overlap Status=No-Overlap",
    "   **   ~~~   **   The base surround errors occurred 1 times.",
    "   **   ~~~   ** Surface \"PERIMETER_BOT_ZN_1_WALL_SOUTH\" misses SubSurface \"PERIMETER_BOT_ZN_1_WALL_SOUTH_WINDOW\"",
    "   ** Warning ** Base surface does not surround subsurface (CHKSBS), Overlap Status=No-Overlap",
    "   **   ~~~   **   The base surround errors occurred 1 times.",
    "   **   ~~~   ** Surface \"PERIMETER_BOT_ZN_2_WALL_EAST\" misses SubSurface \"PERIMETER_BOT_ZN_2_WALL_EAST_WINDOW\"",
    "   ** Warning ** Base surface does not surround subsurface (CHKSBS), Overlap Status=No-Overlap",
    "   **   ~~~   **   The base surround errors occurred 1 times.",
    "   **   ~~~   ** Surface \"PERIMETER_BOT_ZN_3_WALL_NORTH\" misses SubSurface \"PERIMETER_BOT_ZN_3_WALL_NORTH_WINDOW\"",
    "   ** Warning ** Base surface does not surround subsurface (CHKSBS), Overlap Status=No-Overlap",
    "   **   ~~~   **   The base surround errors occurred 1 times.",
    "   **   ~~~   ** Surface \"PERIMETER_BOT_ZN_4_WALL_WEST\" misses SubSurface \"PERIMETER_BOT_ZN_4_WALL_WEST_WINDOW\"",
    "   ** Warning ** Base surface does not surround subsurface (CHKSBS), Overlap Status=No-Overlap",
    "   **   ~~~   **   The base surround errors occurred 1 times.",
    "   **   ~~~   ** Surface \"PERIMETER_MID_ZN_1_WALL_SOUTH\" misses SubSurface \"PERIMETER_MID_ZN_1_WALL_SOUTH_WINDOW\"",
    "   ** Warning ** Base surface does not surround subsurface (CHKSBS), Overlap Status=No-Overlap",
    "   **   ~~~   **   The base surround errors occurred 1 times.",
    "   **   ~~~   ** Surface \"PERIMETER_MID_ZN_2_WALL_EAST\" misses SubSurface \"PERIMETER_MID_ZN_2_WALL_EAST_WINDOW\"",
    "   ** Warning ** Base surface does not surround subsurface (CHKSBS), Overlap Status=No-Overlap",
    "   **   ~~~   **   The base surround errors occurred 1 times.",
    "   **   ~~~   ** Surface \"PERIMETER_MID_ZN_3_WALL_NORTH\" misses SubSurface \"PERIMETER_MID_ZN_3_WALL_NORTH_WINDOW\"",
    "   ** Warning ** Base surface does not surround subsurface (CHKSBS), Overlap Status=No-Overlap",
    "   **   ~~~   **   The base surround errors occurred 1 times.",
    "   **   ~~~   ** Surface \"PERIMETER_MID_ZN_4_WALL_WEST\" misses SubSurface \"PERIMETER_MID_ZN_4_WALL_WEST_WINDOW\"",
    "   ** Warning ** Base surface does not surround subsurface (CHKSBS), Overlap Status=No-Overlap",
    "   **   ~~~   **   The base surround errors occurred 1 times.",
    "   **   ~~~   ** Surface \"PERIMETER_TOP_ZN_1_WALL_SOUTH\" misses SubSurface \"PERIMETER_TOP_ZN_1_WALL_SOUTH_WINDOW\"",
    "   ** Warning ** Base surface does not surround subsurface (CHKSBS), Overlap Status=No-Overlap",
    "   **   ~~~   **   The base surround errors occurred 1 times.",
    "   **   ~~~   ** Surface \"PERIMETER_TOP_ZN_2_WALL_EAST\" misses SubSurface \"PERIMETER_TOP_ZN_2_WALL_EAST_WINDOW\"",
    "   ** Warning ** Base surface does not surround subsurface (CHKSBS), Overlap Status=No-Overlap",
    "   **   ~~~   **   The base surround errors occurred 1 times.",
    "   **   ~~~   ** Surface \"PERIMETER_TOP_ZN_3_WALL_NORTH\" misses SubSurface \"PERIMETER_TOP_ZN_3_WALL_NORTH_WINDOW\"",
    "   ** Warning ** Base surface does not surround subsurface (CHKSBS), Overlap Status=No-Overlap",
    "   **   ~~~   **   The base surround errors occurred 1 times.",
    "   **   ~~~   ** Surface \"PERIMETER_TOP_ZN_4_WALL_WEST\" misses SubSurface \"PERIMETER_TOP_ZN_4_WALL_WEST_WINDOW\"",
    "   *************",
    "   **   ~~~   **   The base surround errors occurred 12 times (total).",
    "   *************",
    "   *************",
    "   ************* ===== Recurring Error Summary =====",
    "   ************* The following recurring error messages occurred.",
    "   *************",
    "   *************  ** Warning ** SimHVAC: Exceeding Maximum iterations for all HVAC loops, during SACRAMENTO-EXECUTIVE_724830_CZ2010 continues",
    "   *************  **   ~~~   **   This error occurred 1918 total times;",
    "   *************  **   ~~~   **   during Warmup 0 times;",
    "   *************  **   ~~~   **   during Sizing 0 times.",
    "   *************",
    "   *************  ** Warning ** Temperature out of range [-100. to 200.] (PsyPsatFnTemp)",
    "   *************  **   ~~~   **   This error occurred 8 total times;",
    "   *************  **   ~~~   **   during Warmup 0 times;",
    "   *************  **   ~~~   **   during Sizing 0 times.",
    "   *************  **   ~~~   **   Max=-102.330112 C  Min=-544.03656 C",
    "   *************",
    "   *************  ** Warning ** WetBulb not converged after max iterations(PsyTwbFnTdbWPb)",
    "   *************  **   ~~~   **   This error occurred 2 total times;",
    "   *************  **   ~~~   **   during Warmup 0 times;",
    "   *************  **   ~~~   **   during Sizing 0 times.",
    "   *************",
    "   ************* EnergyPlus Warmup Error Summary. During Warmup: 0 Warning; 0 Severe Errors.",
    "   ************* EnergyPlus Sizing Error Summary. During Sizing: 67 Warning; 0 Severe Errors.",
    "   ************* EnergyPlus Completed Successfully-- 2124 Warning; 0 Severe Errors; "
  ],
  "file_paths": [
    "/home/julien/Software/Others/OpenStudio-resources/testruns/030012S_OffMed_CECStd.xml/generated_files",
    "./files",
    "./weather",
    "../../files",
    "../../weather",
    "./"
  ],
  "seed_file": "in.osm",
  "steps": [
    {
      "arguments": {
      },
      "measure_dir_name": "openstudio_results",
      "result": {
        "measure_class_name": "OpenStudioResults",
        "measure_display_name": "OpenStudio Results",
        "measure_name": "openstudio_results",
        "measure_taxonomy": "Reporting.QAQC",
        "measure_type": "ReportingMeasure",
        "measure_uid": "a25386cd-60e4-46bc-8b11-c755f379d916",
        "measure_version_id": "02ad7007-fe7b-4747-bd7a-29d697c4d91a",
        "measure_version_modified": "20180711T183039Z",
        "measure_xml_checksum": "557BF06F",
        "stderr": "",
        "stdout": "",
        "step_errors": [

        ],
        "step_final_condition": "Generated report with 19 sections to ./report.html.",
        "step_info": [

        ],
        "step_initial_condition": "Gathering data from EnergyPlus SQL file and OSM model.",
        "step_result": "Success",
        "step_values": [
          {
            "name": "building_summary_section",
            "value": true
          },
          {
            "name": "annual_overview_section",
            "value": true
          },
          {
            "name": "monthly_overview_section",
            "value": true
          },
          {
            "name": "utility_bills_rates_section",
            "value": true
          },
          {
            "name": "envelope_section_section",
            "value": true
          },
          {
            "name": "space_type_breakdown_section",
            "value": true
          },
          {
            "name": "space_type_details_section",
            "value": true
          },
          {
            "name": "interior_lighting_section",
            "value": true
          },
          {
            "name": "plug_loads_section",
            "value": true
          },
          {
            "name": "exterior_light_section",
            "value": true
          },
          {
            "name": "water_use_section",
            "value": true
          },
          {
            "name": "hvac_load_profile",
            "value": true
          },
          {
            "name": "zone_condition_section",
            "value": true
          },
          {
            "name": "zone_summary_section",
            "value": true
          },
          {
            "name": "zone_equipment_detail_section",
            "value": true
          },
          {
            "name": "air_loops_detail_section",
            "value": true
          },
          {
            "name": "plant_loops_detail_section",
            "value": true
          },
          {
            "name": "outdoor_air_section",
            "value": true
          },
          {
            "name": "cost_summary_section",
            "value": true
          },
          {
            "name": "source_energy_section",
            "value": true
          },
          {
            "name": "schedules_overview_section",
            "value": true
          },
          {
            "name": "standards_gem_version",
            "value": "0.2.12"
          },
          {
            "name": "workflow_gem_version",
            "value": "2.1.0"
          },
          {
            "display_name": "OfficeMedium",
            "name": "building_name",
            "value": "n/a"
          },
          {
            "name": "total_site_energy",
            "units": "kBtu",
            "value": 2589910.28
          },
          {
            "name": "net_site_energy",
            "units": "kBtu",
            "value": 2589910.28
          },
          {
            "name": "total_building_area",
            "units": "ft^2",
            "value": 107255.91
          },
          {
            "name": "total_site_eui",
            "units": "kBtu/ft^2",
            "value": 24.15
          },
          {
            "name": "eui",
            "units": "kBtu/ft^2",
            "value": 24.15
          },
          {
            "name": "unmet_hours_during_heating",
            "units": "hr",
            "value": 411.75
          },
          {
            "name": "unmet_hours_during_cooling",
            "units": "hr",
            "value": 0.0
          },
          {
            "name": "unmet_hours_during_occupied_heating",
            "units": "hr",
            "value": 148.5
          },
          {
            "name": "unmet_hours_during_occupied_cooling",
            "units": "hr",
            "value": 0.0
          },
          {
            "name": "unmet_hours_tolerance_heating",
            "units": "F",
            "value": 1.01
          },
          {
            "name": "unmet_hours_tolerance_cooling",
            "units": "F",
            "value": 1.01
          },
          {
            "name": "electricity_heating_ip",
            "units": "kWh",
            "value": 68.23
          },
          {
            "name": "electricity_cooling_ip",
            "units": "kWh",
            "value": 70099.4
          },
          {
            "name": "electricity_interior_lighting_ip",
            "units": "kWh",
            "value": 90621.69
          },
          {
            "name": "electricity_exterior_lighting_ip",
            "units": "kWh",
            "value": 0.0
          },
          {
            "name": "electricity_interior_equipment_ip",
            "units": "kWh",
            "value": 229701.42
          },
          {
            "name": "electricity_exterior_equipment_ip",
            "units": "kWh",
            "value": 0.0
          },
          {
            "name": "electricity_fans_ip",
            "units": "kWh",
            "value": 34990.39
          },
          {
            "name": "electricity_pumps_ip",
            "units": "kWh",
            "value": 2953.73
          },
          {
            "name": "electricity_heat_rejection_ip",
            "units": "kWh",
            "value": 0.0
          },
          {
            "name": "electricity_humidification_ip",
            "units": "kWh",
            "value": 0.0
          },
          {
            "name": "electricity_heat_recovery_ip",
            "units": "kWh",
            "value": 0.0
          },
          {
            "name": "electricity_water_systems_ip",
            "units": "kWh",
            "value": 0.0
          },
          {
            "name": "electricity_refrigeration_ip",
            "units": "kWh",
            "value": 0.0
          },
          {
            "name": "electricity_generators_ip",
            "units": "kWh",
            "value": 0.0
          },
          {
            "name": "electricity_ip",
            "units": "kWh",
            "value": 428434.87
          },
          {
            "name": "natural_gas_heating_ip",
            "units": "MBtu",
            "value": 1061.74
          },
          {
            "name": "natural_gas_cooling_ip",
            "units": "MBtu",
            "value": 0.0
          },
          {
            "name": "natural_gas_interior_lighting_ip",
            "units": "MBtu",
            "value": 0.0
          },
          {
            "name": "natural_gas_exterior_lighting_ip",
            "units": "MBtu",
            "value": 0.0
          },
          {
            "name": "natural_gas_interior_equipment_ip",
            "units": "MBtu",
            "value": 0.0
          },
          {
            "name": "natural_gas_exterior_equipment_ip",
            "units": "MBtu",
            "value": 0.0
          },
          {
            "name": "natural_gas_fans_ip",
            "units": "MBtu",
            "value": 0.0
          },
          {
            "name": "natural_gas_pumps_ip",
            "units": "MBtu",
            "value": 0.0
          },
          {
            "name": "natural_gas_heat_rejection_ip",
            "units": "MBtu",
            "value": 0.0
          },
          {
            "name": "natural_gas_humidification_ip",
            "units": "MBtu",
            "value": 0.0
          },
          {
            "name": "natural_gas_heat_recovery_ip",
            "units": "MBtu",
            "value": 0.0
          },
          {
            "name": "natural_gas_water_systems_ip",
            "units": "MBtu",
            "value": 66.29
          },
          {
            "name": "natural_gas_refrigeration_ip",
            "units": "MBtu",
            "value": 0.0
          },
          {
            "name": "natural_gas_generators_ip",
            "units": "MBtu",
            "value": 0.0
          },
          {
            "name": "natural_gas_ip",
            "units": "MBtu",
            "value": 1128.03
          },
          {
            "name": "gasoline_heating_ip",
            "units": "MBtu",
            "value": 0.0
          },
          {
            "name": "gasoline_cooling_ip",
            "units": "MBtu",
            "value": 0.0
          },
          {
            "name": "gasoline_interior_lighting_ip",
            "units": "MBtu",
            "value": 0.0
          },
          {
            "name": "gasoline_exterior_lighting_ip",
            "units": "MBtu",
            "value": 0.0
          },
          {
            "name": "gasoline_interior_equipment_ip",
            "units": "MBtu",
            "value": 0.0
          },
          {
            "name": "gasoline_exterior_equipment_ip",
            "units": "MBtu",
            "value": 0.0
          },
          {
            "name": "gasoline_fans_ip",
            "units": "MBtu",
            "value": 0.0
          },
          {
            "name": "gasoline_pumps_ip",
            "units": "MBtu",
            "value": 0.0
          },
          {
            "name": "gasoline_heat_rejection_ip",
            "units": "MBtu",
            "value": 0.0
          },
          {
            "name": "gasoline_humidification_ip",
            "units": "MBtu",
            "value": 0.0
          },
          {
            "name": "gasoline_heat_recovery_ip",
            "units": "MBtu",
            "value": 0.0
          },
          {
            "name": "gasoline_water_systems_ip",
            "units": "MBtu",
            "value": 0.0
          },
          {
            "name": "gasoline_refrigeration_ip",
            "units": "MBtu",
            "value": 0.0
          },
          {
            "name": "gasoline_generators_ip",
            "units": "MBtu",
            "value": 0.0
          },
          {
            "name": "gasoline_ip",
            "units": "MBtu",
            "value": 0.0
          },
          {
            "name": "diesel_heating_ip",
            "units": "MBtu",
            "value": 0.0
          },
          {
            "name": "diesel_cooling_ip",
            "units": "MBtu",
            "value": 0.0
          },
          {
            "name": "diesel_interior_lighting_ip",
            "units": "MBtu",
            "value": 0.0
          },
          {
            "name": "diesel_exterior_lighting_ip",
            "units": "MBtu",
            "value": 0.0
          },
          {
            "name": "diesel_interior_equipment_ip",
            "units": "MBtu",
            "value": 0.0
          },
          {
            "name": "diesel_exterior_equipment_ip",
            "units": "MBtu",
            "value": 0.0
          },
          {
            "name": "diesel_fans_ip",
            "units": "MBtu",
            "value": 0.0
          },
          {
            "name": "diesel_pumps_ip",
            "units": "MBtu",
            "value": 0.0
          },
          {
            "name": "diesel_heat_rejection_ip",
            "units": "MBtu",
            "value": 0.0
          },
          {
            "name": "diesel_humidification_ip",
            "units": "MBtu",
            "value": 0.0
          },
          {
            "name": "diesel_heat_recovery_ip",
            "units": "MBtu",
            "value": 0.0
          },
          {
            "name": "diesel_water_systems_ip",
            "units": "MBtu",
            "value": 0.0
          },
          {
            "name": "diesel_refrigeration_ip",
            "units": "MBtu",
            "value": 0.0
          },
          {
            "name": "diesel_generators_ip",
            "units": "MBtu",
            "value": 0.0
          },
          {
            "name": "diesel_ip",
            "units": "MBtu",
            "value": 0.0
          },
          {
            "name": "coal_heating_ip",
            "units": "MBtu",
            "value": 0.0
          },
          {
            "name": "coal_cooling_ip",
            "units": "MBtu",
            "value": 0.0
          },
          {
            "name": "coal_interior_lighting_ip",
            "units": "MBtu",
            "value": 0.0
          },
          {
            "name": "coal_exterior_lighting_ip",
            "units": "MBtu",
            "value": 0.0
          },
          {
            "name": "coal_interior_equipment_ip",
            "units": "MBtu",
            "value": 0.0
          },
          {
            "name": "coal_exterior_equipment_ip",
            "units": "MBtu",
            "value": 0.0
          },
          {
            "name": "coal_fans_ip",
            "units": "MBtu",
            "value": 0.0
          },
          {
            "name": "coal_pumps_ip",
            "units": "MBtu",
            "value": 0.0
          },
          {
            "name": "coal_heat_rejection_ip",
            "units": "MBtu",
            "value": 0.0
          },
          {
            "name": "coal_humidification_ip",
            "units": "MBtu",
            "value": 0.0
          },
          {
            "name": "coal_heat_recovery_ip",
            "units": "MBtu",
            "value": 0.0
          },
          {
            "name": "coal_water_systems_ip",
            "units": "MBtu",
            "value": 0.0
          },
          {
            "name": "coal_refrigeration_ip",
            "units": "MBtu",
            "value": 0.0
          },
          {
            "name": "coal_generators_ip",
            "units": "MBtu",
            "value": 0.0
          },
          {
            "name": "coal_ip",
            "units": "MBtu",
            "value": 0.0
          },
          {
            "name": "fuel_oil_no_1_heating_ip",
            "units": "MBtu",
            "value": 0.0
          },
          {
            "name": "fuel_oil_no_1_cooling_ip",
            "units": "MBtu",
            "value": 0.0
          },
          {
            "name": "fuel_oil_no_1_interior_lighting_ip",
            "units": "MBtu",
            "value": 0.0
          },
          {
            "name": "fuel_oil_no_1_exterior_lighting_ip",
            "units": "MBtu",
            "value": 0.0
          },
          {
            "name": "fuel_oil_no_1_interior_equipment_ip",
            "units": "MBtu",
            "value": 0.0
          },
          {
            "name": "fuel_oil_no_1_exterior_equipment_ip",
            "units": "MBtu",
            "value": 0.0
          },
          {
            "name": "fuel_oil_no_1_fans_ip",
            "units": "MBtu",
            "value": 0.0
          },
          {
            "name": "fuel_oil_no_1_pumps_ip",
            "units": "MBtu",
            "value": 0.0
          },
          {
            "name": "fuel_oil_no_1_heat_rejection_ip",
            "units": "MBtu",
            "value": 0.0
          },
          {
            "name": "fuel_oil_no_1_humidification_ip",
            "units": "MBtu",
            "value": 0.0
          },
          {
            "name": "fuel_oil_no_1_heat_recovery_ip",
            "units": "MBtu",
            "value": 0.0
          },
          {
            "name": "fuel_oil_no_1_water_systems_ip",
            "units": "MBtu",
            "value": 0.0
          },
          {
            "name": "fuel_oil_no_1_refrigeration_ip",
            "units": "MBtu",
            "value": 0.0
          },
          {
            "name": "fuel_oil_no_1_generators_ip",
            "units": "MBtu",
            "value": 0.0
          },
          {
            "name": "fuel_oil_no_1_ip",
            "units": "MBtu",
            "value": 0.0
          },
          {
            "name": "fuel_oil_no_2_heating_ip",
            "units": "MBtu",
            "value": 0.0
          },
          {
            "name": "fuel_oil_no_2_cooling_ip",
            "units": "MBtu",
            "value": 0.0
          },
          {
            "name": "fuel_oil_no_2_interior_lighting_ip",
            "units": "MBtu",
            "value": 0.0
          },
          {
            "name": "fuel_oil_no_2_exterior_lighting_ip",
            "units": "MBtu",
            "value": 0.0
          },
          {
            "name": "fuel_oil_no_2_interior_equipment_ip",
            "units": "MBtu",
            "value": 0.0
          },
          {
            "name": "fuel_oil_no_2_exterior_equipment_ip",
            "units": "MBtu",
            "value": 0.0
          },
          {
            "name": "fuel_oil_no_2_fans_ip",
            "units": "MBtu",
            "value": 0.0
          },
          {
            "name": "fuel_oil_no_2_pumps_ip",
            "units": "MBtu",
            "value": 0.0
          },
          {
            "name": "fuel_oil_no_2_heat_rejection_ip",
            "units": "MBtu",
            "value": 0.0
          },
          {
            "name": "fuel_oil_no_2_humidification_ip",
            "units": "MBtu",
            "value": 0.0
          },
          {
            "name": "fuel_oil_no_2_heat_recovery_ip",
            "units": "MBtu",
            "value": 0.0
          },
          {
            "name": "fuel_oil_no_2_water_systems_ip",
            "units": "MBtu",
            "value": 0.0
          },
          {
            "name": "fuel_oil_no_2_refrigeration_ip",
            "units": "MBtu",
            "value": 0.0
          },
          {
            "name": "fuel_oil_no_2_generators_ip",
            "units": "MBtu",
            "value": 0.0
          },
          {
            "name": "fuel_oil_no_2_ip",
            "units": "MBtu",
            "value": 0.0
          },
          {
            "name": "propane_heating_ip",
            "units": "MBtu",
            "value": 0.0
          },
          {
            "name": "propane_cooling_ip",
            "units": "MBtu",
            "value": 0.0
          },
          {
            "name": "propane_interior_lighting_ip",
            "units": "MBtu",
            "value": 0.0
          },
          {
            "name": "propane_exterior_lighting_ip",
            "units": "MBtu",
            "value": 0.0
          },
          {
            "name": "propane_interior_equipment_ip",
            "units": "MBtu",
            "value": 0.0
          },
          {
            "name": "propane_exterior_equipment_ip",
            "units": "MBtu",
            "value": 0.0
          },
          {
            "name": "propane_fans_ip",
            "units": "MBtu",
            "value": 0.0
          },
          {
            "name": "propane_pumps_ip",
            "units": "MBtu",
            "value": 0.0
          },
          {
            "name": "propane_heat_rejection_ip",
            "units": "MBtu",
            "value": 0.0
          },
          {
            "name": "propane_humidification_ip",
            "units": "MBtu",
            "value": 0.0
          },
          {
            "name": "propane_heat_recovery_ip",
            "units": "MBtu",
            "value": 0.0
          },
          {
            "name": "propane_water_systems_ip",
            "units": "MBtu",
            "value": 0.0
          },
          {
            "name": "propane_refrigeration_ip",
            "units": "MBtu",
            "value": 0.0
          },
          {
            "name": "propane_generators_ip",
            "units": "MBtu",
            "value": 0.0
          },
          {
            "name": "propane_ip",
            "units": "MBtu",
            "value": 0.0
          },
          {
            "name": "other_fuel_1_heating_ip",
            "units": "MBtu",
            "value": 0.0
          },
          {
            "name": "other_fuel_1_cooling_ip",
            "units": "MBtu",
            "value": 0.0
          },
          {
            "name": "other_fuel_1_interior_lighting_ip",
            "units": "MBtu",
            "value": 0.0
          },
          {
            "name": "other_fuel_1_exterior_lighting_ip",
            "units": "MBtu",
            "value": 0.0
          },
          {
            "name": "other_fuel_1_interior_equipment_ip",
            "units": "MBtu",
            "value": 0.0
          },
          {
            "name": "other_fuel_1_exterior_equipment_ip",
            "units": "MBtu",
            "value": 0.0
          },
          {
            "name": "other_fuel_1_fans_ip",
            "units": "MBtu",
            "value": 0.0
          },
          {
            "name": "other_fuel_1_pumps_ip",
            "units": "MBtu",
            "value": 0.0
          },
          {
            "name": "other_fuel_1_heat_rejection_ip",
            "units": "MBtu",
            "value": 0.0
          },
          {
            "name": "other_fuel_1_humidification_ip",
            "units": "MBtu",
            "value": 0.0
          },
          {
            "name": "other_fuel_1_heat_recovery_ip",
            "units": "MBtu",
            "value": 0.0
          },
          {
            "name": "other_fuel_1_water_systems_ip",
            "units": "MBtu",
            "value": 0.0
          },
          {
            "name": "other_fuel_1_refrigeration_ip",
            "units": "MBtu",
            "value": 0.0
          },
          {
            "name": "other_fuel_1_generators_ip",
            "units": "MBtu",
            "value": 0.0
          },
          {
            "name": "other_fuel_1_ip",
            "units": "MBtu",
            "value": 0.0
          },
          {
            "name": "other_fuel_2_heating_ip",
            "units": "MBtu",
            "value": 0.0
          },
          {
            "name": "other_fuel_2_cooling_ip",
            "units": "MBtu",
            "value": 0.0
          },
          {
            "name": "other_fuel_2_interior_lighting_ip",
            "units": "MBtu",
            "value": 0.0
          },
          {
            "name": "other_fuel_2_exterior_lighting_ip",
            "units": "MBtu",
            "value": 0.0
          },
          {
            "name": "other_fuel_2_interior_equipment_ip",
            "units": "MBtu",
            "value": 0.0
          },
          {
            "name": "other_fuel_2_exterior_equipment_ip",
            "units": "MBtu",
            "value": 0.0
          },
          {
            "name": "other_fuel_2_fans_ip",
            "units": "MBtu",
            "value": 0.0
          },
          {
            "name": "other_fuel_2_pumps_ip",
            "units": "MBtu",
            "value": 0.0
          },
          {
            "name": "other_fuel_2_heat_rejection_ip",
            "units": "MBtu",
            "value": 0.0
          },
          {
            "name": "other_fuel_2_humidification_ip",
            "units": "MBtu",
            "value": 0.0
          },
          {
            "name": "other_fuel_2_heat_recovery_ip",
            "units": "MBtu",
            "value": 0.0
          },
          {
            "name": "other_fuel_2_water_systems_ip",
            "units": "MBtu",
            "value": 0.0
          },
          {
            "name": "other_fuel_2_refrigeration_ip",
            "units": "MBtu",
            "value": 0.0
          },
          {
            "name": "other_fuel_2_generators_ip",
            "units": "MBtu",
            "value": 0.0
          },
          {
            "name": "other_fuel_2_ip",
            "units": "MBtu",
            "value": 0.0
          },
          {
            "name": "district_cooling_heating_ip",
            "units": "MBtu",
            "value": 0.0
          },
          {
            "name": "district_cooling_cooling_ip",
            "units": "MBtu",
            "value": 0.0
          },
          {
            "name": "district_cooling_interior_lighting_ip",
            "units": "MBtu",
            "value": 0.0
          },
          {
            "name": "district_cooling_exterior_lighting_ip",
            "units": "MBtu",
            "value": 0.0
          },
          {
            "name": "district_cooling_interior_equipment_ip",
            "units": "MBtu",
            "value": 0.0
          },
          {
            "name": "district_cooling_exterior_equipment_ip",
            "units": "MBtu",
            "value": 0.0
          },
          {
            "name": "district_cooling_fans_ip",
            "units": "MBtu",
            "value": 0.0
          },
          {
            "name": "district_cooling_pumps_ip",
            "units": "MBtu",
            "value": 0.0
          },
          {
            "name": "district_cooling_heat_rejection_ip",
            "units": "MBtu",
            "value": 0.0
          },
          {
            "name": "district_cooling_humidification_ip",
            "units": "MBtu",
            "value": 0.0
          },
          {
            "name": "district_cooling_heat_recovery_ip",
            "units": "MBtu",
            "value": 0.0
          },
          {
            "name": "district_cooling_water_systems_ip",
            "units": "MBtu",
            "value": 0.0
          },
          {
            "name": "district_cooling_refrigeration_ip",
            "units": "MBtu",
            "value": 0.0
          },
          {
            "name": "district_cooling_generators_ip",
            "units": "MBtu",
            "value": 0.0
          },
          {
            "name": "district_cooling_ip",
            "units": "MBtu",
            "value": 0.0
          },
          {
            "name": "district_heating_heating_ip",
            "units": "MBtu",
            "value": 0.0
          },
          {
            "name": "district_heating_cooling_ip",
            "units": "MBtu",
            "value": 0.0
          },
          {
            "name": "district_heating_interior_lighting_ip",
            "units": "MBtu",
            "value": 0.0
          },
          {
            "name": "district_heating_exterior_lighting_ip",
            "units": "MBtu",
            "value": 0.0
          },
          {
            "name": "district_heating_interior_equipment_ip",
            "units": "MBtu",
            "value": 0.0
          },
          {
            "name": "district_heating_exterior_equipment_ip",
            "units": "MBtu",
            "value": 0.0
          },
          {
            "name": "district_heating_fans_ip",
            "units": "MBtu",
            "value": 0.0
          },
          {
            "name": "district_heating_pumps_ip",
            "units": "MBtu",
            "value": 0.0
          },
          {
            "name": "district_heating_heat_rejection_ip",
            "units": "MBtu",
            "value": 0.0
          },
          {
            "name": "district_heating_humidification_ip",
            "units": "MBtu",
            "value": 0.0
          },
          {
            "name": "district_heating_heat_recovery_ip",
            "units": "MBtu",
            "value": 0.0
          },
          {
            "name": "district_heating_water_systems_ip",
            "units": "MBtu",
            "value": 0.0
          },
          {
            "name": "district_heating_refrigeration_ip",
            "units": "MBtu",
            "value": 0.0
          },
          {
            "name": "district_heating_generators_ip",
            "units": "MBtu",
            "value": 0.0
          },
          {
            "name": "district_heating_ip",
            "units": "MBtu",
            "value": 0.0
          },
          {
            "name": "water_heating_ip",
            "units": "MBtu",
            "value": 0.0
          },
          {
            "name": "water_cooling_ip",
            "units": "MBtu",
            "value": 0.0
          },
          {
            "name": "water_interior_lighting_ip",
            "units": "MBtu",
            "value": 0.0
          },
          {
            "name": "water_exterior_lighting_ip",
            "units": "MBtu",
            "value": 0.0
          },
          {
            "name": "water_interior_equipment_ip",
            "units": "MBtu",
            "value": 0.0
          },
          {
            "name": "water_exterior_equipment_ip",
            "units": "MBtu",
            "value": 0.0
          },
          {
            "name": "water_fans_ip",
            "units": "MBtu",
            "value": 0.0
          },
          {
            "name": "water_pumps_ip",
            "units": "MBtu",
            "value": 0.0
          },
          {
            "name": "water_heat_rejection_ip",
            "units": "MBtu",
            "value": 0.0
          },
          {
            "name": "water_humidification_ip",
            "units": "MBtu",
            "value": 0.0
          },
          {
            "name": "water_heat_recovery_ip",
            "units": "MBtu",
            "value": 0.0
          },
          {
            "name": "water_water_systems_ip",
            "units": "MBtu",
            "value": 0.0
          },
          {
            "name": "water_refrigeration_ip",
            "units": "MBtu",
            "value": 0.0
          },
          {
            "name": "water_generators_ip",
            "units": "MBtu",
            "value": 0.0
          },
          {
            "name": "water_ip",
            "units": "MBtu",
            "value": 0.0
          },
          {
            "name": "base_cz_12_flat_nonres_wood_framing_and_other_roof_u_034",
            "units": "ft^2",
            "value": 17875.96
          },
          {
            "name": "base_cz_12_nonres_metal_frame_wall_u_062",
            "units": "ft^2",
            "value": 14260.4
          },
          {
            "name": "base_all_cz_fixed_window_u_36",
            "units": "ft^2",
            "value": 7027.05
          },
          {
            "name": "gross_window_wall_ratio",
            "units": "%",
            "value": 33.01
          },
          {
            "name": "gross_window_wall_ratio_conditioned",
            "units": "%",
            "value": 47.68
          },
          {
            "name": "skylight_roof_ratio",
            "units": "%",
            "value": 0.0
          },
          {
            "name": "space_type_no_space_type",
            "units": "ft^2",
            "value": 107255.88
          },
          {
            "name": "exterior_lighting_total_power",
            "units": "W",
            "value": 0.0
          },
          {
            "name": "exterior_lighting_total_consumption",
            "units": "kWh",
            "value": 759027.78
          },
          {
            "name": "core_bottom_water_use_equipment",
            "units": "gal/min",
            "value": 0.16
          },
          {
            "name": "core_mid_water_use_equipment",
            "units": "gal/min",
            "value": 0.16
          },
          {
            "name": "core_top_water_use_equipment",
            "units": "gal/min",
            "value": 0.16
          },
          {
            "name": "perimeter_bot_zn_1_water_use_equipment",
            "units": "gal/min",
            "value": 0.03
          },
          {
            "name": "perimeter_bot_zn_2_water_use_equipment",
            "units": "gal/min",
            "value": 0.02
          },
          {
            "name": "perimeter_bot_zn_3_water_use_equipment",
            "units": "gal/min",
            "value": 0.03
          },
          {
            "name": "perimeter_bot_zn_4_water_use_equipment",
            "units": "gal/min",
            "value": 0.02
          },
          {
            "name": "perimeter_mid_zn_1_water_use_equipment",
            "units": "gal/min",
            "value": 0.03
          },
          {
            "name": "perimeter_mid_zn_2_water_use_equipment",
            "units": "gal/min",
            "value": 0.02
          },
          {
            "name": "perimeter_mid_zn_3_water_use_equipment",
            "units": "gal/min",
            "value": 0.03
          },
          {
            "name": "perimeter_mid_zn_4_water_use_equipment",
            "units": "gal/min",
            "value": 0.02
          },
          {
            "name": "perimeter_top_zn_1_water_use_equipment",
            "units": "gal/min",
            "value": 0.03
          },
          {
            "name": "perimeter_top_zn_2_water_use_equipment",
            "units": "gal/min",
            "value": 0.02
          },
          {
            "name": "perimeter_top_zn_3_water_use_equipment",
            "units": "gal/min",
            "value": 0.03
          },
          {
            "name": "perimeter_top_zn_4_water_use_equipment",
            "units": "gal/min",
            "value": 0.02
          },
          {
            "name": "inflation_approach",
            "value": "Constant Dollar"
          },
          {
            "name": "analysis_length",
            "units": "yrs",
            "value": 25
          },
          {
            "name": "annual_peak_electric_demand",
            "units": "kW",
            "value": 203.35
          },
          {
            "name": "first_year_capital_cost",
            "units": "$",
            "value": 0.0
          },
          {
            "name": "annual_utility_cost",
            "units": "$",
            "value": 0.0
          },
          {
            "name": "total_lifecycle_cost",
            "units": "$",
            "value": 0.0
          }
        ],
        "step_warnings": [
          "Annual Overview section failed and was skipped because: Optional not initialized. Detail on error follows.",
          "/home/julien/Software/Others/OpenStudio-resources/measures/openstudio_results/measure.rb:237:in `eval'\n/home/julien/Software/Others/OpenStudio-resources/measures/openstudio_results/resources/os_lib_reporting.rb:501:in `block in output_data_end_use_table'\n/home/julien/Software/Others/OpenStudio-resources/measures/openstudio_results/resources/os_lib_reporting.rb:491:in `each'\n/home/julien/Software/Others/OpenStudio-resources/measures/openstudio_results/resources/os_lib_reporting.rb:491:in `output_data_end_use_table'\n/home/julien/Software/Others/OpenStudio-resources/measures/openstudio_results/resources/os_lib_reporting.rb:258:in `annual_overview_section'\n(eval):1:in `block in run'\n/home/julien/Software/Others/OpenStudio-resources/measures/openstudio_results/measure.rb:237:in `eval'\n/home/julien/Software/Others/OpenStudio-resources/measures/openstudio_results/measure.rb:237:in `block in run'\n/home/julien/Software/Others/OpenStudio-resources/measures/openstudio_results/measure.rb:233:in `each'\n/home/julien/Software/Others/OpenStudio-resources/measures/openstudio_results/measure.rb:233:in `run'\n:/ruby/2.5.0/gems/openstudio-workflow-2.1.0/lib/openstudio/workflow/util/measure.rb:519:in `apply_measure'\n:/ruby/2.5.0/gems/openstudio-workflow-2.1.0/lib/openstudio/workflow/util/measure.rb:114:in `block in apply_measures'\n:/ruby/2.5.0/gems/openstudio-workflow-2.1.0/lib/openstudio/workflow/util/measure.rb:67:in `each_index'\n:/ruby/2.5.0/gems/openstudio-workflow-2.1.0/lib/openstudio/workflow/util/measure.rb:67:in `apply_measures'\n:/ruby/2.5.0/gems/openstudio-workflow-2.1.0/lib/openstudio/workflow/jobs/run_reporting_measures.rb:105:in `perform'\n:/ruby/2.5.0/gems/openstudio-workflow-2.1.0/lib/openstudio/workflow/run.rb:292:in `step'\n:/ruby/2.5.0/gems/openstudio-workflow-2.1.0/lib/openstudio/workflow/run.rb:234:in `run'\n:/openstudio_cli.rb:971:in `execute'\n:/openstudio_cli.rb:761:in `execute'\n:/openstudio_cli.rb:1755:in `<main>'\neval:175:in `eval'\neval:175:in `require_embedded_absolute'\neval:160:in `block in require_embedded'\neval:154:in `each'\neval:154:in `require_embedded'\neval:113:in `require'\neval:3:in `<main>'",
          "Air Loops Detail section failed and was skipped because: undefined method `minimumSetpointTemperature' for #<OpenStudio::Model::OptionalSetpointManagerWarmest:0x000055b2c444aaf8>. Detail on error follows.",
          "/home/julien/Software/Others/OpenStudio-resources/measures/openstudio_results/measure.rb:237:in `eval'\n/home/julien/Software/Others/OpenStudio-resources/measures/openstudio_results/resources/os_lib_reporting.rb:906:in `air_loop_component_summary_logic'\n/home/julien/Software/Others/OpenStudio-resources/measures/openstudio_results/resources/os_lib_reporting.rb:991:in `block (2 levels) in air_loops_detail_section'\n/home/julien/Software/Others/OpenStudio-resources/measures/openstudio_results/resources/os_lib_reporting.rb:984:in `each'\n/home/julien/Software/Others/OpenStudio-resources/measures/openstudio_results/resources/os_lib_reporting.rb:984:in `block in air_loops_detail_section'\n/home/julien/Software/Others/OpenStudio-resources/measures/openstudio_results/resources/os_lib_reporting.rb:969:in `each'\n/home/julien/Software/Others/OpenStudio-resources/measures/openstudio_results/resources/os_lib_reporting.rb:969:in `air_loops_detail_section'\n(eval):1:in `block in run'\n/home/julien/Software/Others/OpenStudio-resources/measures/openstudio_results/measure.rb:237:in `eval'\n/home/julien/Software/Others/OpenStudio-resources/measures/openstudio_results/measure.rb:237:in `block in run'\n/home/julien/Software/Others/OpenStudio-resources/measures/openstudio_results/measure.rb:233:in `each'\n/home/julien/Software/Others/OpenStudio-resources/measures/openstudio_results/measure.rb:233:in `run'\n:/ruby/2.5.0/gems/openstudio-workflow-2.1.0/lib/openstudio/workflow/util/measure.rb:519:in `apply_measure'\n:/ruby/2.5.0/gems/openstudio-workflow-2.1.0/lib/openstudio/workflow/util/measure.rb:114:in `block in apply_measures'\n:/ruby/2.5.0/gems/openstudio-workflow-2.1.0/lib/openstudio/workflow/util/measure.rb:67:in `each_index'\n:/ruby/2.5.0/gems/openstudio-workflow-2.1.0/lib/openstudio/workflow/util/measure.rb:67:in `apply_measures'\n:/ruby/2.5.0/gems/openstudio-workflow-2.1.0/lib/openstudio/workflow/jobs/run_reporting_measures.rb:105:in `perform'\n:/ruby/2.5.0/gems/openstudio-workflow-2.1.0/lib/openstudio/workflow/run.rb:292:in `step'\n:/ruby/2.5.0/gems/openstudio-workflow-2.1.0/lib/openstudio/workflow/run.rb:234:in `run'\n:/openstudio_cli.rb:971:in `execute'\n:/openstudio_cli.rb:761:in `execute'\n:/openstudio_cli.rb:1755:in `<main>'\neval:175:in `eval'\neval:175:in `require_embedded_absolute'\neval:160:in `block in require_embedded'\neval:154:in `each'\neval:154:in `require_embedded'\neval:113:in `require'\neval:3:in `<main>'"
        ]
      }
    }
  ],
  "weather_file": "../../weatherdata/USA_IL_Chicago-OHare.Intl.AP.725300_TMY3.epw"
}