{
  "completed_status": "Fail",
  "current_step": 1,
  "eplusout_err": [
    "Program Version,EnergyPlus, Version 9.1.0-08d2e308bb, ",
    "   ************* Beginning Zone Sizing Calculations",
    "   ** Warning ** ProcessScheduleInput: Schedule:Day:Interval=\"{042C1827-4EA5-403E-92A0-87E030CBF447}\", Blank Schedule Type Limits Name input -- will not be validated.",
    "   ** Warning ** ProcessScheduleInput: Schedule:Day:Interval=\"{25E39361-4C8B-4B9E-AADA-4463A7EF5A51}\", Blank Schedule Type Limits Name input -- will not be validated.",
    "   ** Warning ** ProcessScheduleInput: Schedule:Day:Interval=\"{2DA8CAE3-C497-4728-B205-C5F8F162EC6A}\", Blank Schedule Type Limits Name input -- will not be validated.",
    "   ** Warning ** ProcessScheduleInput: Schedule:Day:Interval=\"{573F6C38-45BA-427C-A4A4-FE23313C3AAC}\", Blank Schedule Type Limits Name input -- will not be validated.",
    "   ** Warning ** ProcessScheduleInput: Schedule:Day:Interval=\"{72418885-4CE4-408A-9A81-1B256E824CFC}\", Blank Schedule Type Limits Name input -- will not be validated.",
    "   ** Warning ** ProcessScheduleInput: Schedule:Day:Interval=\"{915F4BD7-5E64-458F-AE0F-2B7B07CC04EB}\", Blank Schedule Type Limits Name input -- will not be validated.",
    "   ** Warning ** ProcessScheduleInput: Schedule:Day:Interval=\"{9C9C0955-28AA-424C-B077-C3CDACE7D624}\", Blank Schedule Type Limits Name input -- will not be validated.",
    "   ** Warning ** ProcessScheduleInput: Schedule:Day:Interval=\"{AB06C634-041A-4E99-8712-BA09449E39F3}\", Blank Schedule Type Limits Name input -- will not be validated.",
    "   ** Warning ** ProcessScheduleInput: Schedule:Day:Interval=\"{AF6CFA65-C7E6-48BE-A346-E4909E7E4E02}\", Blank Schedule Type Limits Name input -- will not be validated.",
    "   ** Warning ** ProcessScheduleInput: Schedule:Day:Interval=\"{BA797163-B8F0-4547-9FCC-05004C90CF89}\", Blank Schedule Type Limits Name input -- will not be validated.",
    "   ** Warning ** ProcessScheduleInput: Schedule:Day:Interval=\"{BC2D22B1-F69C-4CBC-8064-973E2DD3A78C}\", Blank Schedule Type Limits Name input -- will not be validated.",
    "   ** Warning ** ProcessScheduleInput: Schedule:Day:Interval=\"{C379F56D-639E-4B3D-AA79-E9FD2BC511AB}\", Blank Schedule Type Limits Name input -- will not be validated.",
    "   ** Warning ** ProcessScheduleInput: Schedule:Day:Interval=\"{C598E5AC-50E1-451E-95FE-CD4F973E89A7}\", Blank Schedule Type Limits Name input -- will not be validated.",
    "   ** Warning ** ProcessScheduleInput: Schedule:Day:Interval=\"{C8BA38DC-31A9-4576-9C0A-82AC882823A3}\", Blank Schedule Type Limits Name input -- will not be validated.",
    "   ** Warning ** ProcessScheduleInput: Schedule:Day:Interval=\"{C9254087-FE04-4844-8360-D37EE11DCD6D}\", Blank Schedule Type Limits Name input -- will not be validated.",
    "   ** Warning ** ProcessScheduleInput: Schedule:Day:Interval=\"{CC285CA8-2C56-497E-9C69-772121CEA843}\", Blank Schedule Type Limits Name input -- will not be validated.",
    "   ** Warning ** ProcessScheduleInput: Schedule:Day:Interval=\"{D3BA97C1-6CE7-4A3B-95FE-F32BD8FD5597}\", Blank Schedule Type Limits Name input -- will not be validated.",
    "   ** Warning ** ProcessScheduleInput: Schedule:Day:Interval=\"{E56863D6-FCAA-49EE-A9EF-3D7F2C967D65}\", Blank Schedule Type Limits Name input -- will not be validated.",
    "   ** Warning ** ProcessScheduleInput: Schedule:Day:Interval=\"{ED51E649-1675-476D-A330-D950FDD0157D}\", Blank Schedule Type Limits Name input -- will not be validated.",
    "   ** Warning ** ProcessScheduleInput: Schedule:Day:Interval=\"{F304C7A8-504D-42EE-9285-50A5ED4181BE}\", Blank Schedule Type Limits Name input -- will not be validated.",
    "   ** Warning ** ProcessScheduleInput: Schedule:Day:Interval=\"{FE58D829-6494-4900-8A9A-A5E5621D3E3B}\", Blank Schedule Type Limits Name input -- will not be validated.",
    "   ** Warning ** ProcessScheduleInput: Schedule:Year=\"BASEMENT SPC TARGET SHW TEMP\", Blank Schedule Type Limits Name input -- will not be validated.",
    "   ** Warning ** ProcessScheduleInput: Schedule:Year=\"CORE_BOTTOM TARGET SHW TEMP\", Blank Schedule Type Limits Name input -- will not be validated.",
    "   ** Warning ** ProcessScheduleInput: Schedule:Year=\"CORE_HI TARGET SHW TEMP\", Blank Schedule Type Limits Name input -- will not be validated.",
    "   ** Warning ** ProcessScheduleInput: Schedule:Year=\"CORE_MID TARGET SHW TEMP\", Blank Schedule Type Limits Name input -- will not be validated.",
    "   ** Warning ** ProcessScheduleInput: Schedule:Year=\"CORE_TOP TARGET SHW TEMP\", Blank Schedule Type Limits Name input -- will not be validated.",
    "   ** Warning ** ProcessScheduleInput: Schedule:Year=\"PERIMETER_BOT_ZN_1 TARGET SHW TEMP\", Blank Schedule Type Limits Name input -- will not be validated.",
    "   ** Warning ** ProcessScheduleInput: Schedule:Year=\"PERIMETER_BOT_ZN_2 TARGET SHW TEMP\", Blank Schedule Type Limits Name input -- will not be validated.",
    "   ** Warning ** ProcessScheduleInput: Schedule:Year=\"PERIMETER_BOT_ZN_3 TARGET SHW TEMP\", Blank Schedule Type Limits Name input -- will not be validated.",
    "   ** Warning ** ProcessScheduleInput: Schedule:Year=\"PERIMETER_BOT_ZN_4 TARGET SHW TEMP\", Blank Schedule Type Limits Name input -- will not be validated.",
    "   ** Warning ** ProcessScheduleInput: Schedule:Year=\"PERIMETER_HI_ZN_1 TARGET SHW TEMP\", Blank Schedule Type Limits Name input -- will not be validated.",
    "   ** Warning ** ProcessScheduleInput: Schedule:Year=\"PERIMETER_HI_ZN_2 TARGET SHW TEMP\", Blank Schedule Type Limits Name input -- will not be validated.",
    "   ** Warning ** ProcessScheduleInput: Schedule:Year=\"PERIMETER_HI_ZN_3 TARGET SHW TEMP\", Blank Schedule Type Limits Name input -- will not be validated.",
    "   ** Warning ** ProcessScheduleInput: Schedule:Year=\"PERIMETER_HI_ZN_4 TARGET SHW TEMP\", Blank Schedule Type Limits Name input -- will not be validated.",
    "   ** Warning ** ProcessScheduleInput: Schedule:Year=\"PERIMETER_MID_ZN_1 TARGET SHW TEMP\", Blank Schedule Type Limits Name input -- will not be validated.",
    "   ** Warning ** ProcessScheduleInput: Schedule:Year=\"PERIMETER_MID_ZN_2 TARGET SHW TEMP\", Blank Schedule Type Limits Name input -- will not be validated.",
    "   ** Warning ** ProcessScheduleInput: Schedule:Year=\"PERIMETER_MID_ZN_3 TARGET SHW TEMP\", Blank Schedule Type Limits Name input -- will not be validated.",
    "   ** Warning ** ProcessScheduleInput: Schedule:Year=\"PERIMETER_MID_ZN_4 TARGET SHW TEMP\", Blank Schedule Type Limits Name input -- will not be validated.",
    "   ** Warning ** ProcessScheduleInput: Schedule:Year=\"PERIMETER_TOP_ZN_1 TARGET SHW TEMP\", Blank Schedule Type Limits Name input -- will not be validated.",
    "   ** Warning ** ProcessScheduleInput: Schedule:Year=\"PERIMETER_TOP_ZN_2 TARGET SHW TEMP\", Blank Schedule Type Limits Name input -- will not be validated.",
    "   ** Warning ** ProcessScheduleInput: Schedule:Year=\"PERIMETER_TOP_ZN_3 TARGET SHW TEMP\", Blank Schedule Type Limits Name input -- will not be validated.",
    "   ** Warning ** ProcessScheduleInput: Schedule:Year=\"PERIMETER_TOP_ZN_4 TARGET SHW TEMP\", Blank Schedule Type Limits Name input -- will not be validated.",
    "   ** Warning ** ProcessScheduleInput: Schedule:Constant=\"ALWAYS OFF DISCRETE\", Blank Schedule Type Limits Name input -- will not be validated.",
    "   ** Warning ** ProcessScheduleInput: Schedule:Constant=\"ALWAYS ON CONTINUOUS\", Blank Schedule Type Limits Name input -- will not be validated.",
    "   ** Warning ** Weather file location will be used rather than entered (IDF) Location object.",
    "   **   ~~~   ** ..Location object={AC6F95EF-ABCF-43F8-AB2A-5AD33EBF09B9}",
    "   **   ~~~   ** ..Weather File Location=Chicago Ohare Intl Ap IL USA TMY3 WMO#=725300",
    "   **   ~~~   ** ..due to location differences, Latitude difference=[8.03] degrees, Longitude difference=[30.48] degrees.",
    "   **   ~~~   ** ..Time Zone difference=[2.0] hour(s), Elevation difference=[572.91] percent, [171.13] meters.",
    "   ** Warning ** CalculateZoneVolume: 3 zones are not fully enclosed. For more details use:  Output:Diagnostics,DisplayExtrawarnings; ",
    "   ** Warning ** GetDaylightingControls: Fraction of Zone controlled by the Daylighting reference points is < 1.0.",
    "   **   ~~~   ** ..discovered in \"Daylighting:Controls\" for Zone=\"PERIMETER_BOT_ZN_1 THERMAL ZONE\", only 0.56 of the zone is controlled.",
    "   ** Warning ** GetDaylightingControls: Fraction of Zone controlled by the Daylighting reference points is < 1.0.",
    "   **   ~~~   ** ..discovered in \"Daylighting:Controls\" for Zone=\"PERIMETER_BOT_ZN_2 THERMAL ZONE\", only 0.57 of the zone is controlled.",
    "   ** Warning ** GetDaylightingControls: Fraction of Zone controlled by the Daylighting reference points is < 1.0.",
    "   **   ~~~   ** ..discovered in \"Daylighting:Controls\" for Zone=\"PERIMETER_BOT_ZN_3 THERMAL ZONE\", only 0.56 of the zone is controlled.",
    "   ** Warning ** GetDaylightingControls: Fraction of Zone controlled by the Daylighting reference points is < 1.0.",
    "   **   ~~~   ** ..discovered in \"Daylighting:Controls\" for Zone=\"PERIMETER_BOT_ZN_4 THERMAL ZONE\", only 0.57 of the zone is controlled.",
    "   ** Warning ** GetDaylightingControls: Fraction of Zone controlled by the Daylighting reference points is < 1.0.",
    "   **   ~~~   ** ..discovered in \"Daylighting:Controls\" for Zone=\"PERIMETER_HI_ZN_1 THERMAL ZONE\", only 0.56 of the zone is controlled.",
    "   ** Warning ** GetDaylightingControls: Fraction of Zone controlled by the Daylighting reference points is < 1.0.",
    "   **   ~~~   ** ..discovered in \"Daylighting:Controls\" for Zone=\"PERIMETER_HI_ZN_2 THERMAL ZONE\", only 0.57 of the zone is controlled.",
    "   ** Warning ** GetDaylightingControls: Fraction of Zone controlled by the Daylighting reference points is < 1.0.",
    "   **   ~~~   ** ..discovered in \"Daylighting:Controls\" for Zone=\"PERIMETER_HI_ZN_3 THERMAL ZONE\", only 0.56 of the zone is controlled.",
    "   ** Warning ** GetDaylightingControls: Fraction of Zone controlled by the Daylighting reference points is < 1.0.",
    "   **   ~~~   ** ..discovered in \"Daylighting:Controls\" for Zone=\"PERIMETER_HI_ZN_4 THERMAL ZONE\", only 0.57 of the zone is controlled.",
    "   ** Warning ** GetDaylightingControls: Fraction of Zone controlled by the Daylighting reference points is < 1.0.",
    "   **   ~~~   ** ..discovered in \"Daylighting:Controls\" for Zone=\"PERIMETER_MID_ZN_1 THERMAL ZONE\", only 0.56 of the zone is controlled.",
    "   ** Warning ** GetDaylightingControls: Fraction of Zone controlled by the Daylighting reference points is < 1.0.",
    "   **   ~~~   ** ..discovered in \"Daylighting:Controls\" for Zone=\"PERIMETER_MID_ZN_2 THERMAL ZONE\", only 0.57 of the zone is controlled.",
    "   ** Warning ** GetDaylightingControls: Fraction of Zone controlled by the Daylighting reference points is < 1.0.",
    "   **   ~~~   ** ..discovered in \"Daylighting:Controls\" for Zone=\"PERIMETER_MID_ZN_3 THERMAL ZONE\", only 0.56 of the zone is controlled.",
    "   ** Warning ** GetDaylightingControls: Fraction of Zone controlled by the Daylighting reference points is < 1.0.",
    "   **   ~~~   ** ..discovered in \"Daylighting:Controls\" for Zone=\"PERIMETER_MID_ZN_4 THERMAL ZONE\", only 0.57 of the zone is controlled.",
    "   ** Warning ** GetDaylightingControls: Fraction of Zone controlled by the Daylighting reference points is < 1.0.",
    "   **   ~~~   ** ..discovered in \"Daylighting:Controls\" for Zone=\"PERIMETER_TOP_ZN_1 THERMAL ZONE\", only 0.56 of the zone is controlled.",
    "   ** Warning ** GetDaylightingControls: Fraction of Zone controlled by the Daylighting reference points is < 1.0.",
    "   **   ~~~   ** ..discovered in \"Daylighting:Controls\" for Zone=\"PERIMETER_TOP_ZN_2 THERMAL ZONE\", only 0.57 of the zone is controlled.",
    "   ** Warning ** GetDaylightingControls: Fraction of Zone controlled by the Daylighting reference points is < 1.0.",
    "   **   ~~~   ** ..discovered in \"Daylighting:Controls\" for Zone=\"PERIMETER_TOP_ZN_3 THERMAL ZONE\", only 0.56 of the zone is controlled.",
    "   ** Warning ** GetDaylightingControls: Fraction of Zone controlled by the Daylighting reference points is < 1.0.",
    "   **   ~~~   ** ..discovered in \"Daylighting:Controls\" for Zone=\"PERIMETER_TOP_ZN_4 THERMAL ZONE\", only 0.57 of the zone is controlled.",
    "   ** Warning ** GetSimpleAirModelInputs: ZoneInfiltration:DesignFlowRate=\"BASEMENT SPC SPACE INFILTRATION DESIGN FLOW RATE 1\", Design Flow Rate Calculation Method specifies Flow per Exterior Surface Area, but Exterior Wall Area = 0.  0 Infiltration will result.",
    "   ** Warning ** GetSimpleAirModelInputs: ZoneInfiltration:DesignFlowRate=\"CORE_BOTTOM SPACE INFILTRATION DESIGN FLOW RATE 1\", Design Flow Rate Calculation Method specifies Flow per Exterior Surface Area, but Exterior Wall Area = 0.  0 Infiltration will result.",
    "   ** Warning ** GetSimpleAirModelInputs: ZoneInfiltration:DesignFlowRate=\"CORE_HI SPACE INFILTRATION DESIGN FLOW RATE 1\", Design Flow Rate Calculation Method specifies Flow per Exterior Surface Area, but Exterior Wall Area = 0.  0 Infiltration will result.",
    "   ** Warning ** GetSimpleAirModelInputs: ZoneInfiltration:DesignFlowRate=\"CORE_MID SPACE INFILTRATION DESIGN FLOW RATE 1\", Design Flow Rate Calculation Method specifies Flow per Exterior Surface Area, but Exterior Wall Area = 0.  0 Infiltration will result.",
    "   ** Warning ** GetSimpleAirModelInputs: ZoneInfiltration:DesignFlowRate=\"CORE_TOP SPACE INFILTRATION DESIGN FLOW RATE 1\", Design Flow Rate Calculation Method specifies Flow per Exterior Surface Area, but Exterior Wall Area = 0.  0 Infiltration will result.",
    "   ************* Beginning System Sizing Calculations",
    "   ** Warning ** Since Zone Minimum Air Flow Input Method = FIXEDFLOWRATE, input for Constant Minimum Air Flow Fraction will be ignored.",
    "   **   ~~~   ** Occurs in AirTerminal:SingleDuct:VAV:Reheat = BASEVAVTRMLUNIT-5",
    "   ** Warning ** Since Damper Heating Action = REVERSE, input for Maximum Flow Fraction During Reheat will be ignored.",
    "   **   ~~~   ** Occurs in AirTerminal:SingleDuct:VAV:Reheat = BASEVAVTRMLUNIT-5",
    "   ** Warning ** Since Zone Minimum Air Flow Input Method = FIXEDFLOWRATE, input for Constant Minimum Air Flow Fraction will be ignored.",
    "   **   ~~~   ** Occurs in AirTerminal:SingleDuct:VAV:Reheat = BASEVAVTRMLUNIT-4",
    "   ** Warning ** Since Damper Heating Action = REVERSE, input for Maximum Flow Fraction During Reheat will be ignored.",
    "   **   ~~~   ** Occurs in AirTerminal:SingleDuct:VAV:Reheat = BASEVAVTRMLUNIT-4",
    "   ** Warning ** Since Zone Minimum Air Flow Input Method = FIXEDFLOWRATE, input for Constant Minimum Air Flow Fraction will be ignored.",
    "   **   ~~~   ** Occurs in AirTerminal:SingleDuct:VAV:Reheat = BASEVAVTRMLUNIT-17",
    "   ** Warning ** Since Damper Heating Action = REVERSE, input for Maximum Flow Fraction During Reheat will be ignored.",
    "   **   ~~~   ** Occurs in AirTerminal:SingleDuct:VAV:Reheat = BASEVAVTRMLUNIT-17",
    "   ** Warning ** Since Zone Minimum Air Flow Input Method = FIXEDFLOWRATE, input for Constant Minimum Air Flow Fraction will be ignored.",
    "   **   ~~~   ** Occurs in AirTerminal:SingleDuct:VAV:Reheat = BASEVAVTRMLUNIT-18",
    "   ** Warning ** Since Damper Heating Action = REVERSE, input for Maximum Flow Fraction During Reheat will be ignored.",
    "   **   ~~~   ** Occurs in AirTerminal:SingleDuct:VAV:Reheat = BASEVAVTRMLUNIT-18",
    "   ** Warning ** Since Zone Minimum Air Flow Input Method = FIXEDFLOWRATE, input for Constant Minimum Air Flow Fraction will be ignored.",
    "   **   ~~~   ** Occurs in AirTerminal:SingleDuct:VAV:Reheat = BASEVAVTRMLUNIT-14",
    "   ** Warning ** Since Damper Heating Action = REVERSE, input for Maximum Flow Fraction During Reheat will be ignored.",
    "   **   ~~~   ** Occurs in AirTerminal:SingleDuct:VAV:Reheat = BASEVAVTRMLUNIT-14",
    "   ** Warning ** Since Zone Minimum Air Flow Input Method = FIXEDFLOWRATE, input for Constant Minimum Air Flow Fraction will be ignored.",
    "   **   ~~~   ** Occurs in AirTerminal:SingleDuct:VAV:Reheat = BASEVAVTRMLUNIT-6",
    "   ** Warning ** Since Damper Heating Action = REVERSE, input for Maximum Flow Fraction During Reheat will be ignored.",
    "   **   ~~~   ** Occurs in AirTerminal:SingleDuct:VAV:Reheat = BASEVAVTRMLUNIT-6",
    "   ** Warning ** Since Zone Minimum Air Flow Input Method = FIXEDFLOWRATE, input for Constant Minimum Air Flow Fraction will be ignored.",
    "   **   ~~~   ** Occurs in AirTerminal:SingleDuct:VAV:Reheat = BASEVAVTRMLUNIT-7",
    "   ** Warning ** Since Damper Heating Action = REVERSE, input for Maximum Flow Fraction During Reheat will be ignored.",
    "   **   ~~~   ** Occurs in AirTerminal:SingleDuct:VAV:Reheat = BASEVAVTRMLUNIT-7",
    "   ** Warning ** Since Zone Minimum Air Flow Input Method = FIXEDFLOWRATE, input for Constant Minimum Air Flow Fraction will be ignored.",
    "   **   ~~~   ** Occurs in AirTerminal:SingleDuct:VAV:Reheat = BASEVAVTRMLUNIT-20",
    "   ** Warning ** Since Damper Heating Action = REVERSE, input for Maximum Flow Fraction During Reheat will be ignored.",
    "   **   ~~~   ** Occurs in AirTerminal:SingleDuct:VAV:Reheat = BASEVAVTRMLUNIT-20",
    "   ** Warning ** Since Zone Minimum Air Flow Input Method = FIXEDFLOWRATE, input for Constant Minimum Air Flow Fraction will be ignored.",
    "   **   ~~~   ** Occurs in AirTerminal:SingleDuct:VAV:Reheat = BASEVAVTRMLUNIT-11",
    "   ** Warning ** Since Damper Heating Action = REVERSE, input for Maximum Flow Fraction During Reheat will be ignored.",
    "   **   ~~~   ** Occurs in AirTerminal:SingleDuct:VAV:Reheat = BASEVAVTRMLUNIT-11",
    "   ** Warning ** Since Zone Minimum Air Flow Input Method = FIXEDFLOWRATE, input for Constant Minimum Air Flow Fraction will be ignored.",
    "   **   ~~~   ** Occurs in AirTerminal:SingleDuct:VAV:Reheat = BASEVAVTRMLUNIT-2",
    "   ** Warning ** Since Damper Heating Action = REVERSE, input for Maximum Flow Fraction During Reheat will be ignored.",
    "   **   ~~~   ** Occurs in AirTerminal:SingleDuct:VAV:Reheat = BASEVAVTRMLUNIT-2",
    "   ** Warning ** Since Zone Minimum Air Flow Input Method = FIXEDFLOWRATE, input for Constant Minimum Air Flow Fraction will be ignored.",
    "   **   ~~~   ** Occurs in AirTerminal:SingleDuct:VAV:Reheat = BASEVAVTRMLUNIT-8",
    "   ** Warning ** Since Damper Heating Action = REVERSE, input for Maximum Flow Fraction During Reheat will be ignored.",
    "   **   ~~~   ** Occurs in AirTerminal:SingleDuct:VAV:Reheat = BASEVAVTRMLUNIT-8",
    "   ** Warning ** Since Zone Minimum Air Flow Input Method = FIXEDFLOWRATE, input for Constant Minimum Air Flow Fraction will be ignored.",
    "   **   ~~~   ** Occurs in AirTerminal:SingleDuct:VAV:Reheat = BASEVAVTRMLUNIT-15",
    "   ** Warning ** Since Damper Heating Action = REVERSE, input for Maximum Flow Fraction During Reheat will be ignored.",
    "   **   ~~~   ** Occurs in AirTerminal:SingleDuct:VAV:Reheat = BASEVAVTRMLUNIT-15",
    "   ** Warning ** Since Zone Minimum Air Flow Input Method = FIXEDFLOWRATE, input for Constant Minimum Air Flow Fraction will be ignored.",
    "   **   ~~~   ** Occurs in AirTerminal:SingleDuct:VAV:Reheat = BASEVAVTRMLUNIT-3",
    "   ** Warning ** Since Damper Heating Action = REVERSE, input for Maximum Flow Fraction During Reheat will be ignored.",
    "   **   ~~~   ** Occurs in AirTerminal:SingleDuct:VAV:Reheat = BASEVAVTRMLUNIT-3",
    "   ** Warning ** Since Zone Minimum Air Flow Input Method = FIXEDFLOWRATE, input for Constant Minimum Air Flow Fraction will be ignored.",
    "   **   ~~~   ** Occurs in AirTerminal:SingleDuct:VAV:Reheat = BASEVAVTRMLUNIT-10",
    "   ** Warning ** Since Damper Heating Action = REVERSE, input for Maximum Flow Fraction During Reheat will be ignored.",
    "   **   ~~~   ** Occurs in AirTerminal:SingleDuct:VAV:Reheat = BASEVAVTRMLUNIT-10",
    "   ** Warning ** Since Zone Minimum Air Flow Input Method = FIXEDFLOWRATE, input for Constant Minimum Air Flow Fraction will be ignored.",
    "   **   ~~~   ** Occurs in AirTerminal:SingleDuct:VAV:Reheat = BASEVAVTRMLUNIT-19",
    "   ** Warning ** Since Damper Heating Action = REVERSE, input for Maximum Flow Fraction During Reheat will be ignored.",
    "   **   ~~~   ** Occurs in AirTerminal:SingleDuct:VAV:Reheat = BASEVAVTRMLUNIT-19",
    "   ** Warning ** Since Zone Minimum Air Flow Input Method = FIXEDFLOWRATE, input for Constant Minimum Air Flow Fraction will be ignored.",
    "   **   ~~~   ** Occurs in AirTerminal:SingleDuct:VAV:Reheat = BASEVAVTRMLUNIT",
    "   ** Warning ** Since Damper Heating Action = REVERSE, input for Maximum Flow Fraction During Reheat will be ignored.",
    "   **   ~~~   ** Occurs in AirTerminal:SingleDuct:VAV:Reheat = BASEVAVTRMLUNIT",
    "   ** Warning ** Since Zone Minimum Air Flow Input Method = FIXEDFLOWRATE, input for Constant Minimum Air Flow Fraction will be ignored.",
    "   **   ~~~   ** Occurs in AirTerminal:SingleDuct:VAV:Reheat = BASEVAVTRMLUNIT-13",
    "   ** Warning ** Since Damper Heating Action = REVERSE, input for Maximum Flow Fraction During Reheat will be ignored.",
    "   **   ~~~   ** Occurs in AirTerminal:SingleDuct:VAV:Reheat = BASEVAVTRMLUNIT-13",
    "   ** Warning ** Since Zone Minimum Air Flow Input Method = FIXEDFLOWRATE, input for Constant Minimum Air Flow Fraction will be ignored.",
    "   **   ~~~   ** Occurs in AirTerminal:SingleDuct:VAV:Reheat = BASEVAVTRMLUNIT-12",
    "   ** Warning ** Since Damper Heating Action = REVERSE, input for Maximum Flow Fraction During Reheat will be ignored.",
    "   **   ~~~   ** Occurs in AirTerminal:SingleDuct:VAV:Reheat = BASEVAVTRMLUNIT-12",
    "   ** Warning ** Since Zone Minimum Air Flow Input Method = FIXEDFLOWRATE, input for Constant Minimum Air Flow Fraction will be ignored.",
    "   **   ~~~   ** Occurs in AirTerminal:SingleDuct:VAV:Reheat = BASEVAVTRMLUNIT-21",
    "   ** Warning ** Since Damper Heating Action = REVERSE, input for Maximum Flow Fraction During Reheat will be ignored.",
    "   **   ~~~   ** Occurs in AirTerminal:SingleDuct:VAV:Reheat = BASEVAVTRMLUNIT-21",
    "   ** Warning ** Since Zone Minimum Air Flow Input Method = FIXEDFLOWRATE, input for Constant Minimum Air Flow Fraction will be ignored.",
    "   **   ~~~   ** Occurs in AirTerminal:SingleDuct:VAV:Reheat = BASEVAVTRMLUNIT-9",
    "   ** Warning ** Since Damper Heating Action = REVERSE, input for Maximum Flow Fraction During Reheat will be ignored.",
    "   **   ~~~   ** Occurs in AirTerminal:SingleDuct:VAV:Reheat = BASEVAVTRMLUNIT-9",
    "   ************* Beginning Plant Sizing Calculations",
    "   ** Warning ** Controller:MechanicalVentilation=\"BASESYS6 OACTRL-BOT MECH VENT CONTROLLER\", Zone OA/person rate",
    "   **   ~~~   ** For Zone=\"CORE_BOTTOM THERMAL ZONE\".",
    "   **   ~~~   ** Zone outside air per person rate not set in Design Specification Outdoor Air Object=\"CORE_BOTTOM THERMAL ZONE DESIGN SPECIFICATION OUTDOOR AIR\".",
    "   ** Warning ** Controller:MechanicalVentilation=\"BASESYS6 OACTRL-BOT MECH VENT CONTROLLER\", Zone OA/person rate",
    "   **   ~~~   ** For Zone=\"PERIMETER_BOT_ZN_2 THERMAL ZONE\".",
    "   **   ~~~   ** Zone outside air per person rate not set in Design Specification Outdoor Air Object=\"PERIMETER_BOT_ZN_2 THERMAL ZONE DESIGN SPECIFICATION OUTDOOR AIR\".",
    "   ** Warning ** Controller:MechanicalVentilation=\"BASESYS6 OACTRL-BOT MECH VENT CONTROLLER\", Zone OA/person rate",
    "   **   ~~~   ** For Zone=\"PERIMETER_BOT_ZN_3 THERMAL ZONE\".",
    "   **   ~~~   ** Zone outside air per person rate not set in Design Specification Outdoor Air Object=\"PERIMETER_BOT_ZN_3 THERMAL ZONE DESIGN SPECIFICATION OUTDOOR AIR\".",
    "   ** Warning ** Controller:MechanicalVentilation=\"BASESYS6 OACTRL-BOT MECH VENT CONTROLLER\", Zone OA/person rate",
    "   **   ~~~   ** For Zone=\"PERIMETER_BOT_ZN_4 THERMAL ZONE\".",
    "   **   ~~~   ** Zone outside air per person rate not set in Design Specification Outdoor Air Object=\"PERIMETER_BOT_ZN_4 THERMAL ZONE DESIGN SPECIFICATION OUTDOOR AIR\".",
    "   ** Warning ** Controller:MechanicalVentilation=\"BASESYS6 OACTRL-TOP MECH VENT CONTROLLER\", Zone OA/person rate",
    "   **   ~~~   ** For Zone=\"PERIMETER_TOP_ZN_2 THERMAL ZONE\".",
    "   **   ~~~   ** Zone outside air per person rate not set in Design Specification Outdoor Air Object=\"PERIMETER_TOP_ZN_2 THERMAL ZONE DESIGN SPECIFICATION OUTDOOR AIR\".",
    "   ** Warning ** InitOAController: Maximum Outdoor Air Flow Rate for Controller:OutdoorAir=BASESYS6 OACTRL is greater than Design Supply Air Flow Rate for AirLoopHVAC=BASEAIRSYS6-BASEMENT.",
    "   **   ~~~   ** ...Maximum Outdoor Air Flow Rate=14.906934 will be reset to loop Design Supply Air Flow Rate=13.647823",
    "   ** Warning ** In calculating the design coil UA for Coil:Cooling:Water BASESYS6 COILCLG",
    "   **   ~~~   ** the outlet chilled water design enthalpy is greater than the inlet air design enthalpy.",
    "   **   ~~~   ** To correct this condition the design chilled water flow rate will be increased from 3.09986E-003",
    "   **   ~~~   ** to 3.53123E-003 m3/s",
    "   ** Severe  ** Calculation of cooling coil design UA failed for coil BASESYS6 COILCLG",
    "   **   ~~~   **   Bad starting values for UA",
    "   **   ~~~   **  Coil design UA set to 54159.040551 [W/C]",
    "   ** Warning ** In calculating the design coil UA for Coil:Cooling:Water BASESYS6 COILCLG-BOT",
    "   **   ~~~   ** the outlet chilled water design enthalpy is greater than the inlet air design enthalpy.",
    "   **   ~~~   ** To correct this condition the design chilled water flow rate will be increased from 5.28262E-003",
    "   **   ~~~   ** to 5.74547E-003 m3/s",
    "   ** Warning ** In calculating the design coil UA for Coil:Cooling:Water BASESYS6 COILCLG-BOT",
    "   **   ~~~   ** the coil bypass factor is unrealistically large;",
    "   **   ~~~   ** The initial design conditions are: Tair,in = 24.9738",
    "   **   ~~~   **                                    Wair,in = 1.056932E-002",
    "   **   ~~~   **                                    Twater,in = 6.6667",
    "   **   ~~~   **                                    Tair,out = 11.1829",
    "   **   ~~~   **                                    Wair,out = 8.500000E-003",
    "   ** Severe  ** Calculation of cooling coil design UA failed for coil BASESYS6 COILCLG-BOT",
    "   **   ~~~   **   Bad starting values for UA",
    "   **   ~~~   **  Coil design UA set to 124946.108647 [W/C]",
    "   ** Warning ** In calculating the design coil UA for Coil:Cooling:Water BASESYS6 COILCLG-HI",
    "   **   ~~~   ** the coil bypass factor is unrealistically large;",
    "   **   ~~~   ** The initial design conditions are: Tair,in = 25.0162",
    "   **   ~~~   **                                    Wair,in = 9.870855E-003",
    "   **   ~~~   **                                    Twater,in = 6.6667",
    "   **   ~~~   **                                    Tair,out = 11.1809",
    "   **   ~~~   **                                    Wair,out = 8.500000E-003",
    "   ** Warning ** In calculating the design coil UA for Coil:Cooling:Water BASESYS6 COILCLG-MID",
    "   **   ~~~   ** the coil bypass factor is unrealistically large;",
    "   **   ~~~   ** The initial design conditions are: Tair,in = 26.3674",
    "   **   ~~~   **                                    Wair,in = 1.045352E-002",
    "   **   ~~~   **                                    Twater,in = 6.6667",
    "   **   ~~~   **                                    Tair,out = 11.1826",
    "   **   ~~~   **                                    Wair,out = 8.500000E-003",
    "   ** Warning ** In calculating the design coil UA for Coil:Cooling:Water BASESYS6 COILCLG-TOP",
    "   **   ~~~   ** the coil bypass factor is unrealistically large;",
    "   **   ~~~   ** The initial design conditions are: Tair,in = 27.9528",
    "   **   ~~~   **                                    Wair,in = 1.182404E-002",
    "   **   ~~~   **                                    Twater,in = 6.6667",
    "   **   ~~~   **                                    Tair,out = 11.1866",
    "   **   ~~~   **                                    Wair,out = 8.500000E-003",
    "   ** Warning ** Check input. Pump nominal power or motor efficiency is set to 0, for pump={7F631D88-3D37-4989-B32B-ABEC390067C0}",
    "   ** Warning ** Output:Meter: invalid Key Name=\"DISTRICTCOOLING:FACILITY\" - not found.",
    "   ** Warning ** Output:Meter: invalid Key Name=\"DISTRICTHEATING:FACILITY\" - not found.",
    "   ** Warning ** Output:Meter:MeterFileOnly: invalid Key Name=\"HEATING:DISTRICTCOOLING\" - not found.",
    "   ** Warning ** Output:Meter:MeterFileOnly: invalid Key Name=\"INTERIOREQUIPMENT:DISTRICTHEATING\" - not found.",
    "   ** Warning ** Output:Meter:MeterFileOnly: invalid Key Name=\"COOLING:DISTRICTCOOLING\" - not found.",
    "   ** Warning ** Output:Meter:MeterFileOnly: invalid Key Name=\"EXTERIOREQUIPMENT:DISTRICTHEATING\" - not found.",
    "   ** Warning ** Output:Meter:MeterFileOnly: invalid Key Name=\"PUMPS:DISTRICTHEATING\" - not found.",
    "   ** Warning ** Output:Meter:MeterFileOnly: invalid Key Name=\"HEATRECOVERY:DISTRICTHEATING\" - not found.",
    "   ** Warning ** Output:Meter:MeterFileOnly: invalid Key Name=\"WATERSYSTEMS:DISTRICTCOOLING\" - not found.",
    "   ** Warning ** Output:Meter:MeterFileOnly: invalid Key Name=\"HEATREJECTION:DISTRICTHEATING\" - not found.",
    "   ** Warning ** Output:Meter:MeterFileOnly: invalid Key Name=\"HEATING:DISTRICTHEATING\" - not found.",
    "   ** Warning ** Output:Meter:MeterFileOnly: invalid Key Name=\"PROCESS:INTERIOREQUIPMENT:GAS\" - not found.",
    "   ** Warning ** Output:Meter:MeterFileOnly: invalid Key Name=\"EXTERIORLIGHTS:DISTRICTHEATING\" - not found.",
    "   ** Warning ** Output:Meter:MeterFileOnly: invalid Key Name=\"RECEPTACLE:EXTERIOREQUIPMENT:GAS\" - not found.",
    "   ** Warning ** Output:Meter:MeterFileOnly: invalid Key Name=\"NONCOMPLIANCELTG:INTERIORLIGHTS:ELECTRICITY\" - not found.",
    "   ** Warning ** Output:Meter:MeterFileOnly: invalid Key Name=\"INTERIORLIGHTS:DISTRICTHEATING\" - not found.",
    "   ** Warning ** Output:Meter:MeterFileOnly: invalid Key Name=\"EXTERIOREQUIPMENT:GAS\" - not found.",
    "   ** Warning ** Output:Meter:MeterFileOnly: invalid Key Name=\"NONREG LTG:EXTERIORLIGHTS:ELECTRICITY\" - not found.",
    "   ** Warning ** Output:Meter:MeterFileOnly: invalid Key Name=\"HEATRECOVERY:DISTRICTCOOLING\" - not found.",
    "   ** Warning ** Output:Meter:MeterFileOnly: invalid Key Name=\"HEATRECOVERY:ELECTRICITY\" - not found.",
    "   ** Warning ** Output:Meter:MeterFileOnly: invalid Key Name=\"INTERIOREQUIPMENT:DISTRICTCOOLING\" - not found.",
    "   ** Warning ** Output:Meter:MeterFileOnly: invalid Key Name=\"HEATRECOVERY:GAS\" - not found.",
    "   ** Warning ** Output:Meter:MeterFileOnly: invalid Key Name=\"FANS:GAS\" - not found.",
    "   ** Warning ** Output:Meter:MeterFileOnly: invalid Key Name=\"EXTERIOREQUIPMENT:ELECTRICITY\" - not found.",
    "   ** Warning ** Output:Meter:MeterFileOnly: invalid Key Name=\"COGENERATION:GAS\" - not found.",
    "   ** Warning ** Output:Meter:MeterFileOnly: invalid Key Name=\"COGENERATION:DISTRICTCOOLING\" - not found.",
    "   ** Warning ** Output:Meter:MeterFileOnly: invalid Key Name=\"REFRIGERATION:GAS\" - not found.",
    "   ** Warning ** Output:Meter:MeterFileOnly: invalid Key Name=\"PUMPS:DISTRICTCOOLING\" - not found.",
    "   ** Warning ** Output:Meter:MeterFileOnly: invalid Key Name=\"EXTERIOREQUIPMENT:DISTRICTCOOLING\" - not found.",
    "   ** Warning ** Output:Meter:MeterFileOnly: invalid Key Name=\"FANS:DISTRICTCOOLING\" - not found.",
    "   ** Warning ** Output:Meter:MeterFileOnly: invalid Key Name=\"HEATREJECTION:DISTRICTCOOLING\" - not found.",
    "   ** Warning ** Output:Meter:MeterFileOnly: invalid Key Name=\"HUMIDIFIER:DISTRICTCOOLING\" - not found.",
    "   ** Warning ** Output:Meter:MeterFileOnly: invalid Key Name=\"EXTERIORLIGHTS:ELECTRICITY\" - not found.",
    "   ** Warning ** Output:Meter:MeterFileOnly: invalid Key Name=\"REFRIGERATION:DISTRICTCOOLING\" - not found.",
    "   ** Warning ** Output:Meter:MeterFileOnly: invalid Key Name=\"INTERIORLIGHTS:DISTRICTCOOLING\" - not found.",
    "   ** Warning ** Output:Meter:MeterFileOnly: invalid Key Name=\"EXTERIORLIGHTS:DISTRICTCOOLING\" - not found.",
    "   ** Warning ** Output:Meter:MeterFileOnly: invalid Key Name=\"HUMIDIFIER:GAS\" - not found.",
    "   ** Warning ** Output:Meter:MeterFileOnly: invalid Key Name=\"COGENERATION:ELECTRICITY\" - not found.",
    "   ** Warning ** Output:Meter:MeterFileOnly: invalid Key Name=\"HEATREJECTION:GAS\" - not found.",
    "   ** Warning ** Output:Meter:MeterFileOnly: invalid Key Name=\"PUMPS:GAS\" - not found.",
    "   ** Warning ** Output:Meter:MeterFileOnly: invalid Key Name=\"DISTRICTCOOLING:FACILITY\" - not found.",
    "   ** Warning ** Output:Meter:MeterFileOnly: invalid Key Name=\"EXTERIORLIGHTS:GAS\" - not found.",
    "   ** Warning ** Output:Meter:MeterFileOnly: invalid Key Name=\"INTERIORLIGHTS:GAS\" - not found.",
    "   ** Warning ** Output:Meter:MeterFileOnly: invalid Key Name=\"REG LTG:EXTERIORLIGHTS:ELECTRICITY\" - not found.",
    "   ** Warning ** Output:Meter:MeterFileOnly: invalid Key Name=\"REFRIGERATION:ELECTRICITY\" - not found.",
    "   ** Warning ** Output:Meter:MeterFileOnly: invalid Key Name=\"WATERSYSTEMS:ELECTRICITY\" - not found.",
    "   ** Warning ** Output:Meter:MeterFileOnly: invalid Key Name=\"HUMIDIFIER:ELECTRICITY\" - not found.",
    "   ** Warning ** Output:Meter:MeterFileOnly: invalid Key Name=\"RECEPTACLE:EXTERIOREQUIPMENT:ELECTRICITY\" - not found.",
    "   ** Warning ** Output:Meter:MeterFileOnly: invalid Key Name=\"PROCESS:INTERIOREQUIPMENT:ELECTRICITY\" - not found.",
    "   ** Warning ** Output:Meter:MeterFileOnly: invalid Key Name=\"COGENERATION:DISTRICTHEATING\" - not found.",
    "   ** Warning ** Output:Meter:MeterFileOnly: invalid Key Name=\"PROCESS:EXTERIOREQUIPMENT:ELECTRICITY\" - not found.",
    "   ** Warning ** Output:Meter:MeterFileOnly: invalid Key Name=\"REFRIG:EXTERIOREQUIPMENT:ELECTRICITY\" - not found.",
    "   ** Warning ** Output:Meter:MeterFileOnly: invalid Key Name=\"INTERNAL TRANSPORT:INTERIOREQUIPMENT:ELECTRICITY\" - not found.",
    "   ** Warning ** Output:Meter:MeterFileOnly: invalid Key Name=\"COOLING:GAS\" - not found.",
    "   ** Warning ** Output:Meter:MeterFileOnly: invalid Key Name=\"FANS:DISTRICTHEATING\" - not found.",
    "   ** Warning ** Output:Meter:MeterFileOnly: invalid Key Name=\"DISTRICTHEATING:FACILITY\" - not found.",
    "   ** Warning ** Output:Meter:MeterFileOnly: invalid Key Name=\"PROCESS:EXTERIOREQUIPMENT:GAS\" - not found.",
    "   ** Warning ** Output:Meter:MeterFileOnly: invalid Key Name=\"COOLING:DISTRICTHEATING\" - not found.",
    "   ** Warning ** Output:Meter:MeterFileOnly: invalid Key Name=\"REFRIG:INTERIOREQUIPMENT:ELECTRICITY\" - not found.",
    "   ** Warning ** Output:Meter:MeterFileOnly: invalid Key Name=\"WATERSYSTEMS:DISTRICTHEATING\" - not found.",
    "   ** Warning ** Output:Meter:MeterFileOnly: invalid Key Name=\"REFRIGERATION:DISTRICTHEATING\" - not found.",
    "   ** Warning ** Output:Meter:MeterFileOnly: invalid Key Name=\"HUMIDIFIER:DISTRICTHEATING\" - not found.",
    "   ** Warning ** Output:Meter:MeterFileOnly requested for \"Electricity:Facility\" (TimeStep), already on \"Output:Meter\". Will report to both eplusout.eso and eplusout.mtr",
    "   ************* Testing Individual Branch Integrity",
    "   ************* All Branches passed integrity testing",
    "   ************* Testing Individual Supply Air Path Integrity",
    "   ************* All Supply Air Paths passed integrity testing",
    "   ************* Testing Individual Return Air Path Integrity",
    "   ************* All Return Air Paths passed integrity testing",
    "   ************* No node connection errors were found.",
    "   ************* Beginning Simulation",
    "   ** Warning ** Processing Monthly Tabular Reports: Variable names not valid for this simulation",
    "   **   ~~~   ** ...use Output:Diagnostics,DisplayExtraWarnings; to show more details on individual variables.",
    "   ** Warning ** SimHVAC: Maximum iterations (20) exceeded for all HVAC loops, at LOS-ANGELES-INTL_722950_CZ2010, 01/01 08:09 - 08:12",
    "   **   ~~~   ** The solution for one or more of the Air Loop HVAC systems did not appear to converge",
    "   **   ~~~   ** ...use Output:Diagnostics,DisplayExtraWarnings; to show more details on each max iteration exceeded.",
    "   ** Warning ** SimHVAC: Maximum iterations (20) exceeded for all HVAC loops, at LOS-ANGELES-INTL_722950_CZ2010, 01/01 08:15 - 08:30",
    "   **   ~~~   ** The solution for one or more of the Air Loop HVAC systems did not appear to converge",
    "   ** Warning ** SimHVAC: Maximum iterations (20) exceeded for all HVAC loops, at LOS-ANGELES-INTL_722950_CZ2010, 01/01 08:18 - 08:21",
    "   **   ~~~   ** The solution for one or more of the Air Loop HVAC systems did not appear to converge",
    "   ** Warning ** SimHVAC: Maximum iterations (20) exceeded for all HVAC loops, at LOS-ANGELES-INTL_722950_CZ2010, 01/01 08:21 - 08:24",
    "   **   ~~~   ** The solution for one or more of the Air Loop HVAC systems did not appear to converge",
    "   ** Warning ** SimHVAC: Maximum iterations (20) exceeded for all HVAC loops, at LOS-ANGELES-INTL_722950_CZ2010, 01/01 08:24 - 08:27",
    "   **   ~~~   ** The solution for one or more of the Air Loop HVAC systems did not appear to converge",
    "   ** Warning ** SimHVAC: Maximum iterations (20) exceeded for all HVAC loops, at LOS-ANGELES-INTL_722950_CZ2010, 01/01 08:27 - 08:30",
    "   **   ~~~   ** The solution for one or more of the Air Loop HVAC systems did not appear to converge",
    "   ** Warning ** SimHVAC: Maximum iterations (20) exceeded for all HVAC loops, at LOS-ANGELES-INTL_722950_CZ2010, 01/01 08:30 - 08:45",
    "   **   ~~~   ** The solution for one or more of the Air Loop HVAC systems did not appear to converge",
    "   ** Warning ** SimHVAC: Maximum iterations (20) exceeded for all HVAC loops, at LOS-ANGELES-INTL_722950_CZ2010, 01/01 08:30 - 08:34",
    "   **   ~~~   ** The solution for one or more of the Air Loop HVAC systems did not appear to converge",
    "   ** Warning ** SimHVAC: Maximum iterations (20) exceeded for all HVAC loops, at LOS-ANGELES-INTL_722950_CZ2010, 01/01 08:34 - 08:38",
    "   **   ~~~   ** The solution for one or more of the Air Loop HVAC systems did not appear to converge",
    "   ** Warning ** SimHVAC: Maximum iterations (20) exceeded for all HVAC loops, at LOS-ANGELES-INTL_722950_CZ2010, 01/01 08:41 - 08:45",
    "   **   ~~~   ** The solution for one or more of the Air Loop HVAC systems did not appear to converge",
    "   ** Warning ** SimHVAC: Maximum iterations (20) exceeded for all HVAC loops, at LOS-ANGELES-INTL_722950_CZ2010, 01/01 08:45 - 09:00",
    "   **   ~~~   ** The solution for one or more of the Air Loop HVAC systems did not appear to converge",
    "   ** Warning ** SimHVAC: Maximum iterations (20) exceeded for all HVAC loops, at LOS-ANGELES-INTL_722950_CZ2010, 01/01 08:45 - 08:50",
    "   **   ~~~   ** The solution for one or more of the Air Loop HVAC systems did not appear to converge",
    "   ** Warning ** SimHVAC: Maximum iterations (20) exceeded for all HVAC loops, at LOS-ANGELES-INTL_722950_CZ2010, 01/01 08:50 - 08:55",
    "   **   ~~~   ** The solution for one or more of the Air Loop HVAC systems did not appear to converge",
    "   ** Warning ** SimHVAC: Maximum iterations (20) exceeded for all HVAC loops, at LOS-ANGELES-INTL_722950_CZ2010, 01/01 08:55 - 09:00",
    "   **   ~~~   ** The solution for one or more of the Air Loop HVAC systems did not appear to converge",
    "   ** Warning ** CoolingTower:VariableSpeed \"BASE TOWER\" - Tower range temperature is outside model boundaries at -0.85.",
    "   **   ~~~   **  ...Valid range = 1.11 to 11.11. Occurrence info = LOS-ANGELES-INTL_722950_CZ2010, 01/16 14:45 - 15:00",
    "   **   ~~~   **  ...Tower range temperature passed to the model = -0.84934",
    "   **   ~~~   **  ...Range temperatures outside model boundaries may not adversely affect tower performance.",
    "   **   ~~~   **  ...This is not an unexpected occurrence when simulating actual conditions.",
    "   ** Warning ** CoolingTower:VariableSpeed \"BASE TOWER\" - Tower approach temperature is outside model boundaries at 14.96.",
    "   **   ~~~   **  ...Valid range = 1.11 to 11.11. Occurrence info = LOS-ANGELES-INTL_722950_CZ2010, 01/16 14:45 - 15:00",
    "   **   ~~~   **  ...Tower approach temperature passed to the model = 14.96279",
    "   **   ~~~   **  ...Approach temperatures outside model boundaries may not adversely affect tower performance.",
    "   **   ~~~   **  ...This is not an unexpected occurrence when simulating actual conditions.",
    "   ** Warning ** CoolingTower:VariableSpeed \"BASE TOWER\" - Water flow rate ratio is outside model boundaries at 0.57.",
    "   **   ~~~   **  ...Valid range = 0.75 to 1.25. Occurrence info = LOS-ANGELES-INTL_722950_CZ2010, 01/16 14:45 - 15:00",
    "   **   ~~~   **  ...Water flow rate ratio passed to the model = 0.75000",
    "   **   ~~~   **  ...Water flow rate ratios outside model boundaries may not adversely affect tower performance.",
    "   ** Warning ** CoolingTower:VariableSpeed \"BASE TOWER\" - Water flow rate ratio is outside model boundaries at 0.57.",
    "   **   ~~~   **  ...Valid range = 0.75 to 1.25. Occurrence info = LOS-ANGELES-INTL_722950_CZ2010, 01/16 15:00 - 15:15",
    "   **   ~~~   **  ...Water flow rate ratio passed to the model = 0.75000",
    "   **   ~~~   **  ...Water flow rate ratios outside model boundaries may not adversely affect tower performance.",
    "   ** Warning ** CoolingTower:VariableSpeed \"BASE TOWER\" - Water flow rate ratio is outside model boundaries at 0.57.",
    "   **   ~~~   **  ...Valid range = 0.75 to 1.25. Occurrence info = LOS-ANGELES-INTL_722950_CZ2010, 01/16 15:15 - 15:30",
    "   **   ~~~   **  ...Water flow rate ratio passed to the model = 0.75000",
    "   **   ~~~   **  ...Water flow rate ratios outside model boundaries may not adversely affect tower performance.",
    "   ** Warning ** CoolingTower:VariableSpeed \"BASE TOWER\" - Water flow rate ratio is outside model boundaries at 0.57.",
    "   **   ~~~   **  ...Valid range = 0.75 to 1.25. Occurrence info = LOS-ANGELES-INTL_722950_CZ2010, 01/16 15:30 - 15:45",
    "   **   ~~~   **  ...Water flow rate ratio passed to the model = 0.75000",
    "   **   ~~~   **  ...Water flow rate ratios outside model boundaries may not adversely affect tower performance.",
    "   ** Warning ** CoolingTower:VariableSpeed \"BASE TOWER\" - Water flow rate ratio is outside model boundaries at 0.57.",
    "   **   ~~~   **  ...Valid range = 0.75 to 1.25. Occurrence info = LOS-ANGELES-INTL_722950_CZ2010, 01/17 12:15 - 12:30",
    "   **   ~~~   **  ...Water flow rate ratio passed to the model = 0.75000",
    "   **   ~~~   **  ...Water flow rate ratios outside model boundaries may not adversely affect tower performance.",
    "   ** Warning ** CoolingTower:VariableSpeed \"BASE TOWER\" - Cooling tower air flow rate ratio calculation failed ",
    "   **   ~~~   ** ...with conditions as Twb = 15.42, Trange =  3.88, Tapproach =  5.69, and water flow rate ratio =  1.15",
    "   **   ~~~   ** ...a solution could not be found within the valid range of air flow rate ratios",
    "   **   ~~~   **  ...Valid air flow rate ratio range =  0.50 to 1.0.",
    "   **   ~~~   **  Environment=LOS-ANGELES-INTL_722950_CZ2010, at Simulation time=05/22 09:30 - 09:38",
    "   **   ~~~   ** ...Consider modifying the design approach or design range temperature for this tower.",
    "   ** Warning ** CoolingTower:VariableSpeed \"BASE TOWER\" - Inlet air wet-bulb temperature is outside model boundaries at 26.68.",
    "   **   ~~~   **  ...Valid range = -1.00 to 26.67. Occurrence info = LOS-ANGELES-INTL_722950_CZ2010, 07/19 16:15 - 16:30",
    "   **   ~~~   **  ...Inlet air wet-bulb temperature passed to the model = 26.666700",
    "   **   ~~~   **  ...Wet-bulb temperatures outside model boundaries may not adversely affect tower performance.",
    "   ** Warning ** CoolingTower:VariableSpeed \"BASE TOWER\" - Inlet air wet-bulb temperature is outside model boundaries at 26.81.",
    "   **   ~~~   **  ...Valid range = -1.00 to 26.67. Occurrence info = LOS-ANGELES-INTL_722950_CZ2010, 07/19 16:30 - 16:32",
    "   **   ~~~   **  ...Inlet air wet-bulb temperature passed to the model = 26.666700",
    "   **   ~~~   **  ...Wet-bulb temperatures outside model boundaries may not adversely affect tower performance.",
    "   ** Warning ** CoolingTower:VariableSpeed \"BASE TOWER\" - Inlet air wet-bulb temperature is outside model boundaries at 26.81.",
    "   **   ~~~   **  ...Valid range = -1.00 to 26.67. Occurrence info = LOS-ANGELES-INTL_722950_CZ2010, 07/19 16:32 - 16:33",
    "   **   ~~~   **  ...Inlet air wet-bulb temperature passed to the model = 26.666700",
    "   **   ~~~   **  ...Wet-bulb temperatures outside model boundaries may not adversely affect tower performance.",
    "   ** Warning ** CoolingTower:VariableSpeed \"BASE TOWER\" - Inlet air wet-bulb temperature is outside model boundaries at 26.81.",
    "   **   ~~~   **  ...Valid range = -1.00 to 26.67. Occurrence info = LOS-ANGELES-INTL_722950_CZ2010, 07/19 16:33 - 16:35",
    "   **   ~~~   **  ...Inlet air wet-bulb temperature passed to the model = 26.666700",
    "   **   ~~~   **  ...Wet-bulb temperatures outside model boundaries may not adversely affect tower performance.",
    "   ** Warning ** CoolingTower:VariableSpeed \"BASE TOWER\" - Inlet air wet-bulb temperature is outside model boundaries at 26.81.",
    "   **   ~~~   **  ...Valid range = -1.00 to 26.67. Occurrence info = LOS-ANGELES-INTL_722950_CZ2010, 07/19 16:35 - 16:37",
    "   **   ~~~   **  ...Inlet air wet-bulb temperature passed to the model = 26.666700",
    "   **   ~~~   **  ...Wet-bulb temperatures outside model boundaries may not adversely affect tower performance.",
    "   ** Warning ** GetDensityGlycol: Temperature is out of range (too high) for fluid [WATER] density **",
    "   **   ~~~   ** ..Called From:PlantPumps:CalcPumps: ,Temperature=[100.14], supplied data range=[0.00,100.00]",
    "   **   ~~~   **  Environment=LOS-ANGELES-INTL_722950_CZ2010, at Simulation time=09/17 22:00 - 22:15",
    "   ** Warning ** The resource referenced by LifeCycleCost:UsePriceEscalation= \"U.S. AVG  COMMERCIAL-ELECTRICITY\" has no energy cost. ",
    "   **   ~~~   ** ... It is likely that the wrong resource is used. The resource should match the meter used in Utility:Tariff.",
    "   ** Warning ** The resource referenced by LifeCycleCost:UsePriceEscalation= \"U.S. AVG  COMMERCIAL-DISTILLATE OIL\" has no energy cost. ",
    "   **   ~~~   ** ... It is likely that the wrong resource is used. The resource should match the meter used in Utility:Tariff.",
    "   ** Warning ** The resource referenced by LifeCycleCost:UsePriceEscalation= \"U.S. AVG  COMMERCIAL-RESIDUAL OIL\" has no energy cost. ",
    "   **   ~~~   ** ... It is likely that the wrong resource is used. The resource should match the meter used in Utility:Tariff.",
    "   ** Warning ** The resource referenced by LifeCycleCost:UsePriceEscalation= \"U.S. AVG  COMMERCIAL-NATURAL GAS\" has no energy cost. ",
    "   **   ~~~   ** ... It is likely that the wrong resource is used. The resource should match the meter used in Utility:Tariff.",
    "   ** Warning ** The resource referenced by LifeCycleCost:UsePriceEscalation= \"U.S. AVG  COMMERCIAL-COAL\" has no energy cost. ",
    "   **   ~~~   ** ... It is likely that the wrong resource is used. The resource should match the meter used in Utility:Tariff.",
    "   ************* Simulation Error Summary *************",
    "   ************* There are 25 unused schedules in input.",
    "   ************* There are 9 unused week schedules in input.",
    "   ************* There are 28 unused day schedules in input.",
    "   ************* Use Output:Diagnostics,DisplayUnusedSchedules; to see them.",
    "   *************",
    "   ************* ===== Recurring Error Summary =====",
    "   ************* The following recurring error messages occurred.",
    "   *************",
    "   *************  ** Warning ** SimHVAC: Exceeding Maximum iterations for all HVAC loops, during LOS-ANGELES-INTL_722950_CZ2010 continues",
    "   *************  **   ~~~   **   This error occurred 25306 total times;",
    "   *************  **   ~~~   **   during Warmup 0 times;",
    "   *************  **   ~~~   **   during Sizing 0 times.",
    "   *************",
    "   *************  ** Warning ** CoolingTower:VariableSpeed \"BASE TOWER\" - Tower range temperature is out of range error continues...",
    "   *************  **   ~~~   **   This error occurred 15668 total times;",
    "   *************  **   ~~~   **   during Warmup 0 times;",
    "   *************  **   ~~~   **   during Sizing 0 times.",
    "   *************  **   ~~~   **   Max=14.941875  Min=-5.287757",
    "   *************",
    "   *************  ** Warning ** CoolingTower:VariableSpeed \"BASE TOWER\" - Tower approach temperature is out of range error continues...",
    "   *************  **   ~~~   **   This error occurred 10623 total times;",
    "   *************  **   ~~~   **   during Warmup 0 times;",
    "   *************  **   ~~~   **   during Sizing 0 times.",
    "   *************  **   ~~~   **   Max=17.906228  Min=-5.829417",
    "   *************",
    "   *************  ** Warning ** CoolingTower:VariableSpeed \"BASE TOWER\" - Water flow rate ratio is out of range error continues...",
    "   *************  **   ~~~   **   This error occurred 8018 total times;",
    "   *************  **   ~~~   **   during Warmup 0 times;",
    "   *************  **   ~~~   **   during Sizing 0 times.",
    "   *************  **   ~~~   **   Max=0.57328  Min=0.571496",
    "   *************",
    "   *************  ** Warning ** CoolingTower:VariableSpeed \"BASE TOWER\" - Cooling tower air flow rate ratio calculation failed error continues.",
    "   *************  **   ~~~   **   This error occurred 1 total times;",
    "   *************  **   ~~~   **   during Warmup 0 times;",
    "   *************  **   ~~~   **   during Sizing 0 times.",
    "   *************",
    "   *************  ** Warning ** CoolingTower:VariableSpeed \"BASE TOWER\" - Inlet air wet-bulb temperature is out of range error continues...",
    "   *************  **   ~~~   **   This error occurred 13 total times;",
    "   *************  **   ~~~   **   during Warmup 0 times;",
    "   *************  **   ~~~   **   during Sizing 0 times.",
    "   *************  **   ~~~   **   Max=26.940529  Min=26.787076",
    "   *************",
    "   *************  ** Warning ** GetDensityGlycol: Temperature out of range (too high) for fluid [WATER] density **",
    "   *************  **   ~~~   **   This error occurred 5645 total times;",
    "   *************  **   ~~~   **   during Warmup 0 times;",
    "   *************  **   ~~~   **   during Sizing 0 times.",
    "   *************  **   ~~~   **   Max=109.435003 {C}  Min=100.015222 {C}",
    "   *************",
    "   *************  ** Warning ** Plant loop exceeding upper temperature limit, PlantLoop=\"BASEHWSYSTEM\"",
    "   *************  **   ~~~   **   This error occurred 21 total times;",
    "   *************  **   ~~~   **   during Warmup 0 times;",
    "   *************  **   ~~~   **   during Sizing 0 times.",
    "   *************  **   ~~~   **   Max=108.902924",
    "   *************",
    "   ************* EnergyPlus Warmup Error Summary. During Warmup: 0 Warning; 0 Severe Errors.",
    "   ************* EnergyPlus Sizing Error Summary. During Sizing: 107 Warning; 0 Severe Errors.",
    "   ************* EnergyPlus Completed Successfully-- 65511 Warning; 2 Severe Errors; "
  ],
  "seed_file": "in.osm",
  "steps": [
    {
      "arguments": {
      },
      "measure_dir_name": "openstudio_results",
      "result": {
        "measure_class_name": "OpenStudioResults",
        "measure_display_name": "OpenStudio Results",
        "measure_name": "openstudio_results",
        "measure_taxonomy": "Reporting.QAQC",
        "measure_type": "ReportingMeasure",
        "measure_uid": "a25386cd-60e4-46bc-8b11-c755f379d916",
        "measure_version_id": "02ad7007-fe7b-4747-bd7a-29d697c4d91a",
        "measure_version_modified": "20180711T183039Z",
        "measure_xml_checksum": "557BF06F",
        "stderr": "",
        "stdout": "[openstudio.energyplus.SqlFile] <1> Exception while opening database at '/home/julien/Software/Others/OpenStudio-resources/testruns/040006_OffLrg_Run11.xml/run/eplusout.sql': OpenStudio is not compatible with this file.\n",
        "step_errors": [
          "Can't find Building Area to get tabular units. Measure can't run"
        ],
        "step_info": [

        ],
        "step_initial_condition": "Gathering data from EnergyPlus SQL file and OSM model.",
        "step_result": "Fail",
        "step_values": [
          {
            "name": "building_summary_section",
            "value": true
          },
          {
            "name": "annual_overview_section",
            "value": true
          },
          {
            "name": "monthly_overview_section",
            "value": true
          },
          {
            "name": "utility_bills_rates_section",
            "value": true
          },
          {
            "name": "envelope_section_section",
            "value": true
          },
          {
            "name": "space_type_breakdown_section",
            "value": true
          },
          {
            "name": "space_type_details_section",
            "value": true
          },
          {
            "name": "interior_lighting_section",
            "value": true
          },
          {
            "name": "plug_loads_section",
            "value": true
          },
          {
            "name": "exterior_light_section",
            "value": true
          },
          {
            "name": "water_use_section",
            "value": true
          },
          {
            "name": "hvac_load_profile",
            "value": true
          },
          {
            "name": "zone_condition_section",
            "value": true
          },
          {
            "name": "zone_summary_section",
            "value": true
          },
          {
            "name": "zone_equipment_detail_section",
            "value": true
          },
          {
            "name": "air_loops_detail_section",
            "value": true
          },
          {
            "name": "plant_loops_detail_section",
            "value": true
          },
          {
            "name": "outdoor_air_section",
            "value": true
          },
          {
            "name": "cost_summary_section",
            "value": true
          },
          {
            "name": "source_energy_section",
            "value": true
          },
          {
            "name": "schedules_overview_section",
            "value": true
          }
        ],
        "step_warnings": [

        ]
      }
    }
  ],
  "weather_file": "../../weatherdata/USA_IL_Chicago-OHare.Intl.AP.725300_TMY3.epw"
}