{
  "completed_status": "Success",
  "current_step": 1,
  "eplusout_err": [
    "Program Version,EnergyPlus, Version 9.0.1-bb7ca4f0da, ",
    "   ************* Beginning Zone Sizing Calculations",
    "   ** Warning ** ProcessScheduleInput: Schedule:Day:Interval=\"{01D3DEC9-7F07-4E55-9338-2659A995CD6A}\", Blank Schedule Type Limits Name input -- will not be validated.",
    "   ** Warning ** ProcessScheduleInput: Schedule:Day:Interval=\"{21B04F89-FF69-45FA-91E9-1EB10A3EB9E2}\", Blank Schedule Type Limits Name input -- will not be validated.",
    "   ** Warning ** ProcessScheduleInput: Schedule:Day:Interval=\"{2228B283-A4E7-43F7-AE03-AEE4FB2A238E}\", Blank Schedule Type Limits Name input -- will not be validated.",
    "   ** Warning ** ProcessScheduleInput: Schedule:Day:Interval=\"{2AFAF941-DCA5-4731-ABAB-91904D96E8EB}\", Blank Schedule Type Limits Name input -- will not be validated.",
    "   ** Warning ** ProcessScheduleInput: Schedule:Day:Interval=\"{2B3A9C79-858E-4185-BA96-2CB8B933A53F}\", Blank Schedule Type Limits Name input -- will not be validated.",
    "   ** Warning ** ProcessScheduleInput: Schedule:Day:Interval=\"{3705D7F9-28E0-4E0E-B217-027D604B2F2E}\", Blank Schedule Type Limits Name input -- will not be validated.",
    "   ** Warning ** ProcessScheduleInput: Schedule:Day:Interval=\"{3A3420C9-6791-4B01-A46A-CDB8DD00920D}\", Blank Schedule Type Limits Name input -- will not be validated.",
    "   ** Warning ** ProcessScheduleInput: Schedule:Day:Interval=\"{3B374CF1-E088-4AD2-9660-2013FCE1804A}\", Blank Schedule Type Limits Name input -- will not be validated.",
    "   ** Warning ** ProcessScheduleInput: Schedule:Day:Interval=\"{50C86B99-A68C-4484-998D-9C5EF48D5E28}\", Blank Schedule Type Limits Name input -- will not be validated.",
    "   ** Warning ** ProcessScheduleInput: Schedule:Day:Interval=\"{624CA287-270C-4657-8A80-6DE0A99C1124}\", Blank Schedule Type Limits Name input -- will not be validated.",
    "   ** Warning ** ProcessScheduleInput: Schedule:Day:Interval=\"{7D5EAF56-B52B-41B9-BC0F-B640EA30E985}\", Blank Schedule Type Limits Name input -- will not be validated.",
    "   ** Warning ** ProcessScheduleInput: Schedule:Day:Interval=\"{8239D722-3237-4388-85DE-656B3B2D3DB7}\", Blank Schedule Type Limits Name input -- will not be validated.",
    "   ** Warning ** ProcessScheduleInput: Schedule:Day:Interval=\"{A8C134DC-2BC0-44A0-B7A8-D8687A87A023}\", Blank Schedule Type Limits Name input -- will not be validated.",
    "   ** Warning ** ProcessScheduleInput: Schedule:Day:Interval=\"{A8DD919D-AD96-4B0F-8EA0-87CD178643B1}\", Blank Schedule Type Limits Name input -- will not be validated.",
    "   ** Warning ** ProcessScheduleInput: Schedule:Day:Interval=\"{B082A0D7-5662-417C-8F65-40239FD289C6}\", Blank Schedule Type Limits Name input -- will not be validated.",
    "   ** Warning ** ProcessScheduleInput: Schedule:Day:Interval=\"{B2124079-51A8-47DA-A16D-FF38D61941F1}\", Blank Schedule Type Limits Name input -- will not be validated.",
    "   ** Warning ** ProcessScheduleInput: Schedule:Day:Interval=\"{B4EB790B-EC98-453F-B4E9-8D473C7444EE}\", Blank Schedule Type Limits Name input -- will not be validated.",
    "   ** Warning ** ProcessScheduleInput: Schedule:Day:Interval=\"{C9584C48-CDB6-4E6A-BE67-E420E374769D}\", Blank Schedule Type Limits Name input -- will not be validated.",
    "   ** Warning ** ProcessScheduleInput: Schedule:Day:Interval=\"{D0F24FD3-9EB5-4E87-86CA-6783E2EB74DE}\", Blank Schedule Type Limits Name input -- will not be validated.",
    "   ** Warning ** ProcessScheduleInput: Schedule:Day:Interval=\"{DCB42870-2219-4AA8-AD32-27FEDD03FE6D}\", Blank Schedule Type Limits Name input -- will not be validated.",
    "   ** Warning ** ProcessScheduleInput: Schedule:Day:Interval=\"{FFEA1C42-2448-439B-B275-A1E08D0BB932}\", Blank Schedule Type Limits Name input -- will not be validated.",
    "   ** Warning ** ProcessScheduleInput: Schedule:Year=\"BASEMENT SPC TARGET SHW TEMP\", Blank Schedule Type Limits Name input -- will not be validated.",
    "   ** Warning ** ProcessScheduleInput: Schedule:Year=\"CORE_BOTTOM TARGET SHW TEMP\", Blank Schedule Type Limits Name input -- will not be validated.",
    "   ** Warning ** ProcessScheduleInput: Schedule:Year=\"CORE_HI TARGET SHW TEMP\", Blank Schedule Type Limits Name input -- will not be validated.",
    "   ** Warning ** ProcessScheduleInput: Schedule:Year=\"CORE_MID TARGET SHW TEMP\", Blank Schedule Type Limits Name input -- will not be validated.",
    "   ** Warning ** ProcessScheduleInput: Schedule:Year=\"CORE_TOP TARGET SHW TEMP\", Blank Schedule Type Limits Name input -- will not be validated.",
    "   ** Warning ** ProcessScheduleInput: Schedule:Year=\"PERIMETER_BOT_ZN_1 TARGET SHW TEMP\", Blank Schedule Type Limits Name input -- will not be validated.",
    "   ** Warning ** ProcessScheduleInput: Schedule:Year=\"PERIMETER_BOT_ZN_2 TARGET SHW TEMP\", Blank Schedule Type Limits Name input -- will not be validated.",
    "   ** Warning ** ProcessScheduleInput: Schedule:Year=\"PERIMETER_BOT_ZN_3 TARGET SHW TEMP\", Blank Schedule Type Limits Name input -- will not be validated.",
    "   ** Warning ** ProcessScheduleInput: Schedule:Year=\"PERIMETER_BOT_ZN_4 TARGET SHW TEMP\", Blank Schedule Type Limits Name input -- will not be validated.",
    "   ** Warning ** ProcessScheduleInput: Schedule:Year=\"PERIMETER_HI_ZN_1 TARGET SHW TEMP\", Blank Schedule Type Limits Name input -- will not be validated.",
    "   ** Warning ** ProcessScheduleInput: Schedule:Year=\"PERIMETER_HI_ZN_2 TARGET SHW TEMP\", Blank Schedule Type Limits Name input -- will not be validated.",
    "   ** Warning ** ProcessScheduleInput: Schedule:Year=\"PERIMETER_HI_ZN_3 TARGET SHW TEMP\", Blank Schedule Type Limits Name input -- will not be validated.",
    "   ** Warning ** ProcessScheduleInput: Schedule:Year=\"PERIMETER_HI_ZN_4 TARGET SHW TEMP\", Blank Schedule Type Limits Name input -- will not be validated.",
    "   ** Warning ** ProcessScheduleInput: Schedule:Year=\"PERIMETER_MID_ZN_1 TARGET SHW TEMP\", Blank Schedule Type Limits Name input -- will not be validated.",
    "   ** Warning ** ProcessScheduleInput: Schedule:Year=\"PERIMETER_MID_ZN_2 TARGET SHW TEMP\", Blank Schedule Type Limits Name input -- will not be validated.",
    "   ** Warning ** ProcessScheduleInput: Schedule:Year=\"PERIMETER_MID_ZN_3 TARGET SHW TEMP\", Blank Schedule Type Limits Name input -- will not be validated.",
    "   ** Warning ** ProcessScheduleInput: Schedule:Year=\"PERIMETER_MID_ZN_4 TARGET SHW TEMP\", Blank Schedule Type Limits Name input -- will not be validated.",
    "   ** Warning ** ProcessScheduleInput: Schedule:Year=\"PERIMETER_TOP_ZN_1 TARGET SHW TEMP\", Blank Schedule Type Limits Name input -- will not be validated.",
    "   ** Warning ** ProcessScheduleInput: Schedule:Year=\"PERIMETER_TOP_ZN_2 TARGET SHW TEMP\", Blank Schedule Type Limits Name input -- will not be validated.",
    "   ** Warning ** ProcessScheduleInput: Schedule:Year=\"PERIMETER_TOP_ZN_3 TARGET SHW TEMP\", Blank Schedule Type Limits Name input -- will not be validated.",
    "   ** Warning ** ProcessScheduleInput: Schedule:Year=\"PERIMETER_TOP_ZN_4 TARGET SHW TEMP\", Blank Schedule Type Limits Name input -- will not be validated.",
    "   ** Warning ** ProcessScheduleInput: Schedule:Constant=\"ALWAYS OFF DISCRETE\", Blank Schedule Type Limits Name input -- will not be validated.",
    "   ** Warning ** ProcessScheduleInput: Schedule:Constant=\"ALWAYS ON CONTINUOUS\", Blank Schedule Type Limits Name input -- will not be validated.",
    "   ** Warning ** Weather file location will be used rather than entered (IDF) Location object.",
    "   **   ~~~   ** ..Location object={C168FD7D-26C6-41DC-9647-7B46AC0FD977}",
    "   **   ~~~   ** ..Weather File Location=Chicago Ohare Intl Ap IL USA TMY3 WMO#=725300",
    "   **   ~~~   ** ..due to location differences, Latitude difference=[3.40] degrees, Longitude difference=[33.57] degrees.",
    "   **   ~~~   ** ..Time Zone difference=[2.0] hour(s), Elevation difference=[4972.68] percent, [197.04] meters.",
    "   ** Warning ** CalculateZoneVolume: 3 zones are not fully enclosed. For more details use:  Output:Diagnostics,DisplayExtrawarnings; ",
    "   ** Warning ** GetDaylightingControls: Fraction of Zone controlled by the Daylighting reference points is < 1.0.",
    "   **   ~~~   ** ..discovered in \"Daylighting:Controls\" for Zone=\"PERIMETER_BOT_ZN_1 THERMAL ZONE\", only 0.56 of the zone is controlled.",
    "   ** Warning ** GetDaylightingControls: Fraction of Zone controlled by the Daylighting reference points is < 1.0.",
    "   **   ~~~   ** ..discovered in \"Daylighting:Controls\" for Zone=\"PERIMETER_BOT_ZN_2 THERMAL ZONE\", only 0.57 of the zone is controlled.",
    "   ** Warning ** GetDaylightingControls: Fraction of Zone controlled by the Daylighting reference points is < 1.0.",
    "   **   ~~~   ** ..discovered in \"Daylighting:Controls\" for Zone=\"PERIMETER_BOT_ZN_3 THERMAL ZONE\", only 0.56 of the zone is controlled.",
    "   ** Warning ** GetDaylightingControls: Fraction of Zone controlled by the Daylighting reference points is < 1.0.",
    "   **   ~~~   ** ..discovered in \"Daylighting:Controls\" for Zone=\"PERIMETER_BOT_ZN_4 THERMAL ZONE\", only 0.57 of the zone is controlled.",
    "   ** Warning ** GetDaylightingControls: Fraction of Zone controlled by the Daylighting reference points is < 1.0.",
    "   **   ~~~   ** ..discovered in \"Daylighting:Controls\" for Zone=\"PERIMETER_HI_ZN_1 THERMAL ZONE\", only 0.56 of the zone is controlled.",
    "   ** Warning ** GetDaylightingControls: Fraction of Zone controlled by the Daylighting reference points is < 1.0.",
    "   **   ~~~   ** ..discovered in \"Daylighting:Controls\" for Zone=\"PERIMETER_HI_ZN_2 THERMAL ZONE\", only 0.57 of the zone is controlled.",
    "   ** Warning ** GetDaylightingControls: Fraction of Zone controlled by the Daylighting reference points is < 1.0.",
    "   **   ~~~   ** ..discovered in \"Daylighting:Controls\" for Zone=\"PERIMETER_HI_ZN_3 THERMAL ZONE\", only 0.56 of the zone is controlled.",
    "   ** Warning ** GetDaylightingControls: Fraction of Zone controlled by the Daylighting reference points is < 1.0.",
    "   **   ~~~   ** ..discovered in \"Daylighting:Controls\" for Zone=\"PERIMETER_HI_ZN_4 THERMAL ZONE\", only 0.57 of the zone is controlled.",
    "   ** Warning ** GetDaylightingControls: Fraction of Zone controlled by the Daylighting reference points is < 1.0.",
    "   **   ~~~   ** ..discovered in \"Daylighting:Controls\" for Zone=\"PERIMETER_MID_ZN_1 THERMAL ZONE\", only 0.56 of the zone is controlled.",
    "   ** Warning ** GetDaylightingControls: Fraction of Zone controlled by the Daylighting reference points is < 1.0.",
    "   **   ~~~   ** ..discovered in \"Daylighting:Controls\" for Zone=\"PERIMETER_MID_ZN_2 THERMAL ZONE\", only 0.57 of the zone is controlled.",
    "   ** Warning ** GetDaylightingControls: Fraction of Zone controlled by the Daylighting reference points is < 1.0.",
    "   **   ~~~   ** ..discovered in \"Daylighting:Controls\" for Zone=\"PERIMETER_MID_ZN_3 THERMAL ZONE\", only 0.56 of the zone is controlled.",
    "   ** Warning ** GetDaylightingControls: Fraction of Zone controlled by the Daylighting reference points is < 1.0.",
    "   **   ~~~   ** ..discovered in \"Daylighting:Controls\" for Zone=\"PERIMETER_MID_ZN_4 THERMAL ZONE\", only 0.57 of the zone is controlled.",
    "   ** Warning ** GetDaylightingControls: Fraction of Zone controlled by the Daylighting reference points is < 1.0.",
    "   **   ~~~   ** ..discovered in \"Daylighting:Controls\" for Zone=\"PERIMETER_TOP_ZN_1 THERMAL ZONE\", only 0.56 of the zone is controlled.",
    "   ** Warning ** GetDaylightingControls: Fraction of Zone controlled by the Daylighting reference points is < 1.0.",
    "   **   ~~~   ** ..discovered in \"Daylighting:Controls\" for Zone=\"PERIMETER_TOP_ZN_2 THERMAL ZONE\", only 0.57 of the zone is controlled.",
    "   ** Warning ** GetDaylightingControls: Fraction of Zone controlled by the Daylighting reference points is < 1.0.",
    "   **   ~~~   ** ..discovered in \"Daylighting:Controls\" for Zone=\"PERIMETER_TOP_ZN_3 THERMAL ZONE\", only 0.56 of the zone is controlled.",
    "   ** Warning ** GetDaylightingControls: Fraction of Zone controlled by the Daylighting reference points is < 1.0.",
    "   **   ~~~   ** ..discovered in \"Daylighting:Controls\" for Zone=\"PERIMETER_TOP_ZN_4 THERMAL ZONE\", only 0.57 of the zone is controlled.",
    "   ** Warning ** GetSimpleAirModelInputs: ZoneInfiltration:DesignFlowRate=\"BASEMENT SPC SPACE INFILTRATION DESIGN FLOW RATE 1\", Design Flow Rate Calculation Method specifies Flow per Exterior Surface Area, but Exterior Wall Area = 0.  0 Infiltration will result.",
    "   ** Warning ** GetSimpleAirModelInputs: ZoneInfiltration:DesignFlowRate=\"CORE_BOTTOM SPACE INFILTRATION DESIGN FLOW RATE 1\", Design Flow Rate Calculation Method specifies Flow per Exterior Surface Area, but Exterior Wall Area = 0.  0 Infiltration will result.",
    "   ** Warning ** GetSimpleAirModelInputs: ZoneInfiltration:DesignFlowRate=\"CORE_HI SPACE INFILTRATION DESIGN FLOW RATE 1\", Design Flow Rate Calculation Method specifies Flow per Exterior Surface Area, but Exterior Wall Area = 0.  0 Infiltration will result.",
    "   ** Warning ** GetSimpleAirModelInputs: ZoneInfiltration:DesignFlowRate=\"CORE_MID SPACE INFILTRATION DESIGN FLOW RATE 1\", Design Flow Rate Calculation Method specifies Flow per Exterior Surface Area, but Exterior Wall Area = 0.  0 Infiltration will result.",
    "   ** Warning ** GetSimpleAirModelInputs: ZoneInfiltration:DesignFlowRate=\"CORE_TOP SPACE INFILTRATION DESIGN FLOW RATE 1\", Design Flow Rate Calculation Method specifies Flow per Exterior Surface Area, but Exterior Wall Area = 0.  0 Infiltration will result.",
    "   ************* Beginning System Sizing Calculations",
    "   ** Warning ** Since Zone Minimum Air Flow Input Method = FIXEDFLOWRATE, input for Constant Minimum Air Flow Fraction will be ignored.",
    "   **   ~~~   ** Occurs in AirTerminal:SingleDuct:VAV:Reheat = TERMINALUNIT-BASEMENT",
    "   ** Warning ** Since Damper Heating Action = REVERSE, input for Maximum Flow Fraction During Reheat will be ignored.",
    "   **   ~~~   ** Occurs in AirTerminal:SingleDuct:VAV:Reheat = TERMINALUNIT-BASEMENT",
    "   ** Warning ** Since Zone Minimum Air Flow Input Method = FIXEDFLOWRATE, input for Constant Minimum Air Flow Fraction will be ignored.",
    "   **   ~~~   ** Occurs in AirTerminal:SingleDuct:VAV:Reheat = TERMINALUNIT-CORE BOTTOM",
    "   ** Warning ** Since Damper Heating Action = REVERSE, input for Maximum Flow Fraction During Reheat will be ignored.",
    "   **   ~~~   ** Occurs in AirTerminal:SingleDuct:VAV:Reheat = TERMINALUNIT-CORE BOTTOM",
    "   ** Warning ** Since Zone Minimum Air Flow Input Method = FIXEDFLOWRATE, input for Constant Minimum Air Flow Fraction will be ignored.",
    "   **   ~~~   ** Occurs in AirTerminal:SingleDuct:VAV:Reheat = TERMINALUNIT-CORE HI",
    "   ** Warning ** Since Damper Heating Action = REVERSE, input for Maximum Flow Fraction During Reheat will be ignored.",
    "   **   ~~~   ** Occurs in AirTerminal:SingleDuct:VAV:Reheat = TERMINALUNIT-CORE HI",
    "   ** Warning ** Since Zone Minimum Air Flow Input Method = FIXEDFLOWRATE, input for Constant Minimum Air Flow Fraction will be ignored.",
    "   **   ~~~   ** Occurs in AirTerminal:SingleDuct:VAV:Reheat = TERMINALUNIT_CORE_MID",
    "   ** Warning ** Since Damper Heating Action = REVERSE, input for Maximum Flow Fraction During Reheat will be ignored.",
    "   **   ~~~   ** Occurs in AirTerminal:SingleDuct:VAV:Reheat = TERMINALUNIT_CORE_MID",
    "   ** Warning ** Since Zone Minimum Air Flow Input Method = FIXEDFLOWRATE, input for Constant Minimum Air Flow Fraction will be ignored.",
    "   **   ~~~   ** Occurs in AirTerminal:SingleDuct:VAV:Reheat = TERMINALUNIT_CORE_TOP",
    "   ** Warning ** Since Damper Heating Action = REVERSE, input for Maximum Flow Fraction During Reheat will be ignored.",
    "   **   ~~~   ** Occurs in AirTerminal:SingleDuct:VAV:Reheat = TERMINALUNIT_CORE_TOP",
    "   ** Warning ** Since Zone Minimum Air Flow Input Method = FIXEDFLOWRATE, input for Constant Minimum Air Flow Fraction will be ignored.",
    "   **   ~~~   ** Occurs in AirTerminal:SingleDuct:VAV:Reheat = TERMINALUNIT-PERIMETER_BOT_1",
    "   ** Warning ** Since Damper Heating Action = REVERSE, input for Maximum Flow Fraction During Reheat will be ignored.",
    "   **   ~~~   ** Occurs in AirTerminal:SingleDuct:VAV:Reheat = TERMINALUNIT-PERIMETER_BOT_1",
    "   ** Warning ** Since Zone Minimum Air Flow Input Method = FIXEDFLOWRATE, input for Constant Minimum Air Flow Fraction will be ignored.",
    "   **   ~~~   ** Occurs in AirTerminal:SingleDuct:VAV:Reheat = TERMINALUNIT-PERIMETER_BOT_2",
    "   ** Warning ** Since Damper Heating Action = REVERSE, input for Maximum Flow Fraction During Reheat will be ignored.",
    "   **   ~~~   ** Occurs in AirTerminal:SingleDuct:VAV:Reheat = TERMINALUNIT-PERIMETER_BOT_2",
    "   ** Warning ** Since Zone Minimum Air Flow Input Method = FIXEDFLOWRATE, input for Constant Minimum Air Flow Fraction will be ignored.",
    "   **   ~~~   ** Occurs in AirTerminal:SingleDuct:VAV:Reheat = TERMINALUNIT-PERMETER_BOT_3",
    "   ** Warning ** Since Damper Heating Action = REVERSE, input for Maximum Flow Fraction During Reheat will be ignored.",
    "   **   ~~~   ** Occurs in AirTerminal:SingleDuct:VAV:Reheat = TERMINALUNIT-PERMETER_BOT_3",
    "   ** Warning ** Since Zone Minimum Air Flow Input Method = FIXEDFLOWRATE, input for Constant Minimum Air Flow Fraction will be ignored.",
    "   **   ~~~   ** Occurs in AirTerminal:SingleDuct:VAV:Reheat = TERMINALUNIT-PERIMETER_BOT_4",
    "   ** Warning ** Since Damper Heating Action = REVERSE, input for Maximum Flow Fraction During Reheat will be ignored.",
    "   **   ~~~   ** Occurs in AirTerminal:SingleDuct:VAV:Reheat = TERMINALUNIT-PERIMETER_BOT_4",
    "   ** Warning ** Since Zone Minimum Air Flow Input Method = FIXEDFLOWRATE, input for Constant Minimum Air Flow Fraction will be ignored.",
    "   **   ~~~   ** Occurs in AirTerminal:SingleDuct:VAV:Reheat = TERMINALUNIT-PERIMETER_HI_1",
    "   ** Warning ** Since Damper Heating Action = REVERSE, input for Maximum Flow Fraction During Reheat will be ignored.",
    "   **   ~~~   ** Occurs in AirTerminal:SingleDuct:VAV:Reheat = TERMINALUNIT-PERIMETER_HI_1",
    "   ** Warning ** Since Zone Minimum Air Flow Input Method = FIXEDFLOWRATE, input for Constant Minimum Air Flow Fraction will be ignored.",
    "   **   ~~~   ** Occurs in AirTerminal:SingleDuct:VAV:Reheat = TERMINALUNIT-PERIMETER_HI_2",
    "   ** Warning ** Since Damper Heating Action = REVERSE, input for Maximum Flow Fraction During Reheat will be ignored.",
    "   **   ~~~   ** Occurs in AirTerminal:SingleDuct:VAV:Reheat = TERMINALUNIT-PERIMETER_HI_2",
    "   ** Warning ** Since Zone Minimum Air Flow Input Method = FIXEDFLOWRATE, input for Constant Minimum Air Flow Fraction will be ignored.",
    "   **   ~~~   ** Occurs in AirTerminal:SingleDuct:VAV:Reheat = TERMINALUNIT-PERIMETER_HI_3",
    "   ** Warning ** Since Damper Heating Action = REVERSE, input for Maximum Flow Fraction During Reheat will be ignored.",
    "   **   ~~~   ** Occurs in AirTerminal:SingleDuct:VAV:Reheat = TERMINALUNIT-PERIMETER_HI_3",
    "   ** Warning ** Since Zone Minimum Air Flow Input Method = FIXEDFLOWRATE, input for Constant Minimum Air Flow Fraction will be ignored.",
    "   **   ~~~   ** Occurs in AirTerminal:SingleDuct:VAV:Reheat = TERMINALUNIT-PERIMETER_HI_4",
    "   ** Warning ** Since Damper Heating Action = REVERSE, input for Maximum Flow Fraction During Reheat will be ignored.",
    "   **   ~~~   ** Occurs in AirTerminal:SingleDuct:VAV:Reheat = TERMINALUNIT-PERIMETER_HI_4",
    "   ** Warning ** Since Zone Minimum Air Flow Input Method = FIXEDFLOWRATE, input for Constant Minimum Air Flow Fraction will be ignored.",
    "   **   ~~~   ** Occurs in AirTerminal:SingleDuct:VAV:Reheat = TERMINALUNIT_PERIMETER_MID_1",
    "   ** Warning ** Since Damper Heating Action = REVERSE, input for Maximum Flow Fraction During Reheat will be ignored.",
    "   **   ~~~   ** Occurs in AirTerminal:SingleDuct:VAV:Reheat = TERMINALUNIT_PERIMETER_MID_1",
    "   ** Warning ** Since Zone Minimum Air Flow Input Method = FIXEDFLOWRATE, input for Constant Minimum Air Flow Fraction will be ignored.",
    "   **   ~~~   ** Occurs in AirTerminal:SingleDuct:VAV:Reheat = TERMINALUNIT_PERIMETER_MID_2",
    "   ** Warning ** Since Damper Heating Action = REVERSE, input for Maximum Flow Fraction During Reheat will be ignored.",
    "   **   ~~~   ** Occurs in AirTerminal:SingleDuct:VAV:Reheat = TERMINALUNIT_PERIMETER_MID_2",
    "   ** Warning ** Since Zone Minimum Air Flow Input Method = FIXEDFLOWRATE, input for Constant Minimum Air Flow Fraction will be ignored.",
    "   **   ~~~   ** Occurs in AirTerminal:SingleDuct:VAV:Reheat = TERMINALUNIT_PERIMTER_MID_3",
    "   ** Warning ** Since Damper Heating Action = REVERSE, input for Maximum Flow Fraction During Reheat will be ignored.",
    "   **   ~~~   ** Occurs in AirTerminal:SingleDuct:VAV:Reheat = TERMINALUNIT_PERIMTER_MID_3",
    "   ** Warning ** Since Zone Minimum Air Flow Input Method = FIXEDFLOWRATE, input for Constant Minimum Air Flow Fraction will be ignored.",
    "   **   ~~~   ** Occurs in AirTerminal:SingleDuct:VAV:Reheat = TERMINALUNIT_PERIMETER_MID_4",
    "   ** Warning ** Since Damper Heating Action = REVERSE, input for Maximum Flow Fraction During Reheat will be ignored.",
    "   **   ~~~   ** Occurs in AirTerminal:SingleDuct:VAV:Reheat = TERMINALUNIT_PERIMETER_MID_4",
    "   ** Warning ** Since Zone Minimum Air Flow Input Method = FIXEDFLOWRATE, input for Constant Minimum Air Flow Fraction will be ignored.",
    "   **   ~~~   ** Occurs in AirTerminal:SingleDuct:VAV:Reheat = TERMINALUNIT_PERIMETER_TOP_1",
    "   ** Warning ** Since Damper Heating Action = REVERSE, input for Maximum Flow Fraction During Reheat will be ignored.",
    "   **   ~~~   ** Occurs in AirTerminal:SingleDuct:VAV:Reheat = TERMINALUNIT_PERIMETER_TOP_1",
    "   ** Warning ** Since Zone Minimum Air Flow Input Method = FIXEDFLOWRATE, input for Constant Minimum Air Flow Fraction will be ignored.",
    "   **   ~~~   ** Occurs in AirTerminal:SingleDuct:VAV:Reheat = TERMINALUNIT_PERIMETER_TOP_2",
    "   ** Warning ** Since Damper Heating Action = REVERSE, input for Maximum Flow Fraction During Reheat will be ignored.",
    "   **   ~~~   ** Occurs in AirTerminal:SingleDuct:VAV:Reheat = TERMINALUNIT_PERIMETER_TOP_2",
    "   ** Warning ** Since Zone Minimum Air Flow Input Method = FIXEDFLOWRATE, input for Constant Minimum Air Flow Fraction will be ignored.",
    "   **   ~~~   ** Occurs in AirTerminal:SingleDuct:VAV:Reheat = TERMINALUNIT_PERIMETER_TOP_3",
    "   ** Warning ** Since Damper Heating Action = REVERSE, input for Maximum Flow Fraction During Reheat will be ignored.",
    "   **   ~~~   ** Occurs in AirTerminal:SingleDuct:VAV:Reheat = TERMINALUNIT_PERIMETER_TOP_3",
    "   ** Warning ** Since Zone Minimum Air Flow Input Method = FIXEDFLOWRATE, input for Constant Minimum Air Flow Fraction will be ignored.",
    "   **   ~~~   ** Occurs in AirTerminal:SingleDuct:VAV:Reheat = TERMINALUNIT_PERIMETER_TOP_4",
    "   ** Warning ** Since Damper Heating Action = REVERSE, input for Maximum Flow Fraction During Reheat will be ignored.",
    "   **   ~~~   ** Occurs in AirTerminal:SingleDuct:VAV:Reheat = TERMINALUNIT_PERIMETER_TOP_4",
    "   ************* Beginning Plant Sizing Calculations",
    "   ** Warning ** GetElectricEIRChillerInput: Chiller:Electric:EIR=\"WTRRECIP CHILLER\"",
    "   **   ~~~   ** Energy input ratio as a function of temperature curve output is not equal to 1.0 (+ or - 10%) at reference conditions.",
    "   **   ~~~   ** Curve output at reference conditions = 1.166",
    "   ** Warning ** Check input. Pump nominal power or motor efficiency is set to 0, for pump={9E5DD4A4-EF6B-4C5A-8721-31227FB08BBE}",
    "   ** Warning ** Output:Meter: invalid Key Name=\"DISTRICTCOOLING:FACILITY\" - not found.",
    "   ** Warning ** Output:Meter: invalid Key Name=\"DISTRICTHEATING:FACILITY\" - not found.",
    "   ** Warning ** Output:Meter:MeterFileOnly: invalid Key Name=\"PROCESS:INTERIOREQUIPMENT:ELECTRICITY\" - not found.",
    "   ** Warning ** Output:Meter:MeterFileOnly: invalid Key Name=\"INTERIORLIGHTS:DISTRICTHEATING\" - not found.",
    "   ** Warning ** Output:Meter:MeterFileOnly: invalid Key Name=\"WATERSYSTEMS:DISTRICTCOOLING\" - not found.",
    "   ** Warning ** Output:Meter:MeterFileOnly: invalid Key Name=\"HUMIDIFIER:DISTRICTCOOLING\" - not found.",
    "   ** Warning ** Output:Meter:MeterFileOnly: invalid Key Name=\"INTERNAL TRANSPORT:INTERIOREQUIPMENT:ELECTRICITY\" - not found.",
    "   ** Warning ** Output:Meter:MeterFileOnly: invalid Key Name=\"RECEPTACLE:EXTERIOREQUIPMENT:ELECTRICITY\" - not found.",
    "   ** Warning ** Output:Meter:MeterFileOnly: invalid Key Name=\"HUMIDIFIER:DISTRICTHEATING\" - not found.",
    "   ** Warning ** Output:Meter:MeterFileOnly: invalid Key Name=\"EXTERIORLIGHTS:DISTRICTHEATING\" - not found.",
    "   ** Warning ** Output:Meter:MeterFileOnly: invalid Key Name=\"REFRIG:EXTERIOREQUIPMENT:ELECTRICITY\" - not found.",
    "   ** Warning ** Output:Meter:MeterFileOnly: invalid Key Name=\"COOLING:DISTRICTHEATING\" - not found.",
    "   ** Warning ** Output:Meter:MeterFileOnly: invalid Key Name=\"HEATRECOVERY:DISTRICTCOOLING\" - not found.",
    "   ** Warning ** Output:Meter:MeterFileOnly: invalid Key Name=\"RECEPTACLE:INTERIOREQUIPMENT:GAS\" - not found.",
    "   ** Warning ** Output:Meter:MeterFileOnly: invalid Key Name=\"HEATING:DISTRICTHEATING\" - not found.",
    "   ** Warning ** Output:Meter:MeterFileOnly: invalid Key Name=\"PROCESS:EXTERIOREQUIPMENT:ELECTRICITY\" - not found.",
    "   ** Warning ** Output:Meter:MeterFileOnly: invalid Key Name=\"PROCESS:INTERIOREQUIPMENT:GAS\" - not found.",
    "   ** Warning ** Output:Meter:MeterFileOnly: invalid Key Name=\"RECEPTACLE:EXTERIOREQUIPMENT:GAS\" - not found.",
    "   ** Warning ** Output:Meter:MeterFileOnly: invalid Key Name=\"WATERSYSTEMS:ELECTRICITY\" - not found.",
    "   ** Warning ** Output:Meter:MeterFileOnly: invalid Key Name=\"REG LTG:EXTERIORLIGHTS:ELECTRICITY\" - not found.",
    "   ** Warning ** Output:Meter:MeterFileOnly: invalid Key Name=\"HEATING:DISTRICTCOOLING\" - not found.",
    "   ** Warning ** Output:Meter:MeterFileOnly: invalid Key Name=\"COOLING:GAS\" - not found.",
    "   ** Warning ** Output:Meter:MeterFileOnly: invalid Key Name=\"HEATREJECTION:GAS\" - not found.",
    "   ** Warning ** Output:Meter:MeterFileOnly: invalid Key Name=\"HEATRECOVERY:GAS\" - not found.",
    "   ** Warning ** Output:Meter:MeterFileOnly: invalid Key Name=\"COGENERATION:GAS\" - not found.",
    "   ** Warning ** Output:Meter:MeterFileOnly: invalid Key Name=\"DISTRICTCOOLING:FACILITY\" - not found.",
    "   ** Warning ** Output:Meter:MeterFileOnly: invalid Key Name=\"HUMIDIFIER:GAS\" - not found.",
    "   ** Warning ** Output:Meter:MeterFileOnly: invalid Key Name=\"INTERIOREQUIPMENT:DISTRICTCOOLING\" - not found.",
    "   ** Warning ** Output:Meter:MeterFileOnly: invalid Key Name=\"PUMPS:DISTRICTCOOLING\" - not found.",
    "   ** Warning ** Output:Meter:MeterFileOnly: invalid Key Name=\"REFRIGERATION:DISTRICTHEATING\" - not found.",
    "   ** Warning ** Output:Meter:MeterFileOnly: invalid Key Name=\"EXTERIORLIGHTS:DISTRICTCOOLING\" - not found.",
    "   ** Warning ** Output:Meter:MeterFileOnly: invalid Key Name=\"EXTERIOREQUIPMENT:DISTRICTCOOLING\" - not found.",
    "   ** Warning ** Output:Meter:MeterFileOnly: invalid Key Name=\"COGENERATION:DISTRICTHEATING\" - not found.",
    "   ** Warning ** Output:Meter:MeterFileOnly: invalid Key Name=\"COGENERATION:DISTRICTCOOLING\" - not found.",
    "   ** Warning ** Output:Meter:MeterFileOnly: invalid Key Name=\"HEATREJECTION:DISTRICTCOOLING\" - not found.",
    "   ** Warning ** Output:Meter:MeterFileOnly: invalid Key Name=\"EXTERIOREQUIPMENT:GAS\" - not found.",
    "   ** Warning ** Output:Meter:MeterFileOnly: invalid Key Name=\"INTERIORLIGHTS:DISTRICTCOOLING\" - not found.",
    "   ** Warning ** Output:Meter:MeterFileOnly: invalid Key Name=\"REFRIGERATION:DISTRICTCOOLING\" - not found.",
    "   ** Warning ** Output:Meter:MeterFileOnly: invalid Key Name=\"EXTERIOREQUIPMENT:ELECTRICITY\" - not found.",
    "   ** Warning ** Output:Meter:MeterFileOnly: invalid Key Name=\"PUMPS:GAS\" - not found.",
    "   ** Warning ** Output:Meter:MeterFileOnly: invalid Key Name=\"FANS:GAS\" - not found.",
    "   ** Warning ** Output:Meter:MeterFileOnly: invalid Key Name=\"INTERIOREQUIPMENT:GAS\" - not found.",
    "   ** Warning ** Output:Meter:MeterFileOnly: invalid Key Name=\"INTERIORLIGHTS:GAS\" - not found.",
    "   ** Warning ** Output:Meter:MeterFileOnly: invalid Key Name=\"REFRIGERATION:ELECTRICITY\" - not found.",
    "   ** Warning ** Output:Meter:MeterFileOnly: invalid Key Name=\"COGENERATION:ELECTRICITY\" - not found.",
    "   ** Warning ** Output:Meter:MeterFileOnly: invalid Key Name=\"HEATRECOVERY:ELECTRICITY\" - not found.",
    "   ** Warning ** Output:Meter:MeterFileOnly: invalid Key Name=\"HUMIDIFIER:ELECTRICITY\" - not found.",
    "   ** Warning ** Output:Meter:MeterFileOnly: invalid Key Name=\"EXTERIORLIGHTS:ELECTRICITY\" - not found.",
    "   ** Warning ** Output:Meter:MeterFileOnly: invalid Key Name=\"NONCOMPLIANCELTG:INTERIORLIGHTS:ELECTRICITY\" - not found.",
    "   ** Warning ** Output:Meter:MeterFileOnly: invalid Key Name=\"REFRIGERATION:GAS\" - not found.",
    "   ** Warning ** Output:Meter:MeterFileOnly: invalid Key Name=\"FANS:DISTRICTCOOLING\" - not found.",
    "   ** Warning ** Output:Meter:MeterFileOnly: invalid Key Name=\"EXTERIOREQUIPMENT:DISTRICTHEATING\" - not found.",
    "   ** Warning ** Output:Meter:MeterFileOnly: invalid Key Name=\"PROCESS:EXTERIOREQUIPMENT:GAS\" - not found.",
    "   ** Warning ** Output:Meter:MeterFileOnly: invalid Key Name=\"PUMPS:DISTRICTHEATING\" - not found.",
    "   ** Warning ** Output:Meter:MeterFileOnly: invalid Key Name=\"NONREG LTG:EXTERIORLIGHTS:ELECTRICITY\" - not found.",
    "   ** Warning ** Output:Meter:MeterFileOnly: invalid Key Name=\"FANS:DISTRICTHEATING\" - not found.",
    "   ** Warning ** Output:Meter:MeterFileOnly: invalid Key Name=\"REFRIG:INTERIOREQUIPMENT:ELECTRICITY\" - not found.",
    "   ** Warning ** Output:Meter:MeterFileOnly: invalid Key Name=\"WATERSYSTEMS:DISTRICTHEATING\" - not found.",
    "   ** Warning ** Output:Meter:MeterFileOnly: invalid Key Name=\"INTERIOREQUIPMENT:DISTRICTHEATING\" - not found.",
    "   ** Warning ** Output:Meter:MeterFileOnly: invalid Key Name=\"COOLING:DISTRICTCOOLING\" - not found.",
    "   ** Warning ** Output:Meter:MeterFileOnly: invalid Key Name=\"EXTERIORLIGHTS:GAS\" - not found.",
    "   ** Warning ** Output:Meter:MeterFileOnly: invalid Key Name=\"HEATRECOVERY:DISTRICTHEATING\" - not found.",
    "   ** Warning ** Output:Meter:MeterFileOnly: invalid Key Name=\"DISTRICTHEATING:FACILITY\" - not found.",
    "   ** Warning ** Output:Meter:MeterFileOnly: invalid Key Name=\"HEATREJECTION:DISTRICTHEATING\" - not found.",
    "   ** Warning ** Output:Meter:MeterFileOnly requested for \"Electricity:Facility\" (TimeStep), already on \"Output:Meter\". Will report to both eplusout.eso and eplusout.mtr",
    "   ************* Testing Individual Branch Integrity",
    "   ************* All Branches passed integrity testing",
    "   ************* Testing Individual Supply Air Path Integrity",
    "   ************* All Supply Air Paths passed integrity testing",
    "   ************* Testing Individual Return Air Path Integrity",
    "   ************* All Return Air Paths passed integrity testing",
    "   ************* No node connection errors were found.",
    "   ************* Beginning Simulation",
    "   ** Warning ** Processing Monthly Tabular Reports: Variable names not valid for this simulation",
    "   **   ~~~   ** ...use Output:Diagnostics,DisplayExtraWarnings; to show more details on individual variables.",
    "   ** Warning ** SimHVAC: Maximum iterations (20) exceeded for all HVAC loops, at SACRAMENTO-EXECUTIVE_724830_CZ2010, 01/01 08:08 - 08:11",
    "   **   ~~~   ** The solution for one or more of the Air Loop HVAC systems did not appear to converge",
    "   **   ~~~   ** ...use Output:Diagnostics,DisplayExtraWarnings; to show more details on each max iteration exceeded.",
    "   ** Warning ** SimHVAC: Maximum iterations (20) exceeded for all HVAC loops, at SACRAMENTO-EXECUTIVE_724830_CZ2010, 01/01 08:11 - 08:15",
    "   **   ~~~   ** The solution for one or more of the Air Loop HVAC systems did not appear to converge",
    "   ** Warning ** SimHVAC: Maximum iterations (20) exceeded for all HVAC loops, at SACRAMENTO-EXECUTIVE_724830_CZ2010, 01/01 08:15 - 08:30",
    "   **   ~~~   ** The solution for one or more of the Air Loop HVAC systems did not appear to converge",
    "   ** Warning ** SimHVAC: Maximum iterations (20) exceeded for all HVAC loops, at SACRAMENTO-EXECUTIVE_724830_CZ2010, 01/01 08:21 - 08:24",
    "   **   ~~~   ** The solution for one or more of the Air Loop HVAC systems did not appear to converge",
    "   ** Warning ** SimHVAC: Maximum iterations (20) exceeded for all HVAC loops, at SACRAMENTO-EXECUTIVE_724830_CZ2010, 01/01 08:30 - 08:45",
    "   **   ~~~   ** The solution for one or more of the Air Loop HVAC systems did not appear to converge",
    "   ** Warning ** SimHVAC: Maximum iterations (20) exceeded for all HVAC loops, at SACRAMENTO-EXECUTIVE_724830_CZ2010, 01/01 08:35 - 08:40",
    "   **   ~~~   ** The solution for one or more of the Air Loop HVAC systems did not appear to converge",
    "   ** Warning ** SimHVAC: Maximum iterations (20) exceeded for all HVAC loops, at SACRAMENTO-EXECUTIVE_724830_CZ2010, 01/01 08:45 - 09:00",
    "   **   ~~~   ** The solution for one or more of the Air Loop HVAC systems did not appear to converge",
    "   ** Warning ** SimHVAC: Maximum iterations (20) exceeded for all HVAC loops, at SACRAMENTO-EXECUTIVE_724830_CZ2010, 01/01 08:45 - 08:50",
    "   **   ~~~   ** The solution for one or more of the Air Loop HVAC systems did not appear to converge",
    "   ** Warning ** SimHVAC: Maximum iterations (20) exceeded for all HVAC loops, at SACRAMENTO-EXECUTIVE_724830_CZ2010, 01/01 08:50 - 08:55",
    "   **   ~~~   ** The solution for one or more of the Air Loop HVAC systems did not appear to converge",
    "   ** Warning ** SimHVAC: Maximum iterations (20) exceeded for all HVAC loops, at SACRAMENTO-EXECUTIVE_724830_CZ2010, 01/01 08:55 - 09:00",
    "   **   ~~~   ** The solution for one or more of the Air Loop HVAC systems did not appear to converge",
    "   ** Warning ** SimHVAC: Maximum iterations (20) exceeded for all HVAC loops, at SACRAMENTO-EXECUTIVE_724830_CZ2010, 01/01 09:00 - 09:15",
    "   **   ~~~   ** The solution for one or more of the Air Loop HVAC systems did not appear to converge",
    "   ** Warning ** SimHVAC: Maximum iterations (20) exceeded for all HVAC loops, at SACRAMENTO-EXECUTIVE_724830_CZ2010, 01/01 09:00 - 09:05",
    "   **   ~~~   ** The solution for one or more of the Air Loop HVAC systems did not appear to converge",
    "   ** Warning ** SimHVAC: Maximum iterations (20) exceeded for all HVAC loops, at SACRAMENTO-EXECUTIVE_724830_CZ2010, 01/01 09:05 - 09:10",
    "   **   ~~~   ** The solution for one or more of the Air Loop HVAC systems did not appear to converge",
    "   ** Warning ** SimHVAC: Maximum iterations (20) exceeded for all HVAC loops, at SACRAMENTO-EXECUTIVE_724830_CZ2010, 01/01 09:10 - 09:15",
    "   **   ~~~   ** The solution for one or more of the Air Loop HVAC systems did not appear to converge",
    "   ** Warning ** GetSpecificHeatGlycol: Temperature is out of range (too low) for fluid [WATER] specific heat supplied values **",
    "   **   ~~~   ** ..Called From:PlantLoopSolver::EvaluateLoopSetPointLoad,Temperature=[-162.77], supplied data range=[0.00,125.00]",
    "   **   ~~~   **  Environment=SACRAMENTO-EXECUTIVE_724830_CZ2010, at Simulation time=02/11 14:45 - 15:00",
    "   ** Warning ** GetDensityGlycol: Temperature is out of range (too high) for fluid [WATER] density **",
    "   **   ~~~   ** ..Called From:PlantPumps:CalcPumps: ,Temperature=[100.25], supplied data range=[0.00,100.00]",
    "   **   ~~~   **  Environment=SACRAMENTO-EXECUTIVE_724830_CZ2010, at Simulation time=03/10 10:45 - 10:52",
    "   ** Warning ** CoolingTower:VariableSpeed \"COOLING TOWER 1\" - Tower approach temperature is outside model boundaries at 20.10.",
    "   **   ~~~   **  ...Valid range = 1.11 to 11.11. Occurrence info = SACRAMENTO-EXECUTIVE_724830_CZ2010, 03/10 10:45 - 10:52",
    "   **   ~~~   **  ...Tower approach temperature passed to the model = 20.09679",
    "   **   ~~~   **  ...Approach temperatures outside model boundaries may not adversely affect tower performance.",
    "   **   ~~~   **  ...This is not an unexpected occurrence when simulating actual conditions.",
    "   ** Warning ** GetSpecificHeatGlycol: Temperature is out of range (too high) for fluid [WATER] specific heat **",
    "   **   ~~~   ** ..Called From:PlantLoopSolver::UpdateAnyLoopDemandAlterations,Temperature=[232.96], supplied data range=[0.00,125.00]",
    "   **   ~~~   **  Environment=SACRAMENTO-EXECUTIVE_724830_CZ2010, at Simulation time=03/10 11:15 - 11:30",
    "   ** Warning ** CoolingTower:VariableSpeed \"COOLING TOWER 1\" - Tower range temperature is outside model boundaries at 0.00.",
    "   **   ~~~   **  ...Valid range = 1.11 to 11.11. Occurrence info = SACRAMENTO-EXECUTIVE_724830_CZ2010, 03/10 12:30 - 12:45",
    "   **   ~~~   **  ...Tower range temperature passed to the model = 0.00000",
    "   **   ~~~   **  ...Range temperatures outside model boundaries may not adversely affect tower performance.",
    "   **   ~~~   **  ...This is not an unexpected occurrence when simulating actual conditions.",
    "   ** Severe  ** FindRootSimpleController: Controller error for controller = \"CONTROLLER WATER COIL 4\"",
    "   **   ~~~   **  Environment=SACRAMENTO-EXECUTIVE_724830_CZ2010, at Simulation time=04/10 12:15 - 12:30",
    "   **   ~~~   **   Controller function is inconsistent with user specified controller action = Reverse action",
    "   **   ~~~   **   Actuator will be set to maximum action",
    "   **   ~~~   ** Controller control type=Temperature",
    "   **   ~~~   ** Controller temperature setpoint = 15.03 [C]",
    "   **   ~~~   ** Controller sensed temperature = 16.48 [C]",
    "   **   ~~~   ** Controller actuator mass flow rate set to 5.92 [kg/s]",
    "   **   ~~~   ** Controller actuator temperature = 16.49 [C]",
    "   **   ~~~   **   Note: Chilled water coils should be reverse action and the entering chilled",
    "   **   ~~~   **         water temperature (controller actuator temperature) should be below the setpoint temperature",
    "   **   ~~~   **   Note: Hot water coils should be normal action and the entering hot",
    "   **   ~~~   **         water temperature (controller actuator temperature) should be above the setpoint temperature",
    "   ** Warning ** CoolingTower:VariableSpeed \"COOLING TOWER 1\" - Water flow rate ratio is outside model boundaries at 0.52.",
    "   **   ~~~   **  ...Valid range = 0.75 to 1.25. Occurrence info = SACRAMENTO-EXECUTIVE_724830_CZ2010, 04/24 10:53 - 11:00",
    "   **   ~~~   **  ...Water flow rate ratio passed to the model = 0.75000",
    "   **   ~~~   **  ...Water flow rate ratios outside model boundaries may not adversely affect tower performance.",
    "   ** Warning ** CoolingTower:VariableSpeed \"COOLING TOWER 1\" - Water flow rate ratio is outside model boundaries at 0.52.",
    "   **   ~~~   **  ...Valid range = 0.75 to 1.25. Occurrence info = SACRAMENTO-EXECUTIVE_724830_CZ2010, 04/24 14:15 - 14:30",
    "   **   ~~~   **  ...Water flow rate ratio passed to the model = 0.75000",
    "   **   ~~~   **  ...Water flow rate ratios outside model boundaries may not adversely affect tower performance.",
    "   ** Warning ** CoolingTower:VariableSpeed \"COOLING TOWER 1\" - Water flow rate ratio is outside model boundaries at 0.52.",
    "   **   ~~~   **  ...Valid range = 0.75 to 1.25. Occurrence info = SACRAMENTO-EXECUTIVE_724830_CZ2010, 05/05 09:53 - 10:00",
    "   **   ~~~   **  ...Water flow rate ratio passed to the model = 0.75000",
    "   **   ~~~   **  ...Water flow rate ratios outside model boundaries may not adversely affect tower performance.",
    "   ** Severe  ** FindRootSimpleController: Controller error for controller = \"CONTROLLER WATER COIL 8\"",
    "   **   ~~~   **  Environment=SACRAMENTO-EXECUTIVE_724830_CZ2010, at Simulation time=05/18 17:00 - 17:15",
    "   **   ~~~   **   Controller function is inconsistent with user specified controller action = Reverse action",
    "   **   ~~~   **   Actuator will be set to maximum action",
    "   **   ~~~   ** Controller control type=Temperature",
    "   **   ~~~   ** Controller temperature setpoint = 15.21 [C]",
    "   **   ~~~   ** Controller sensed temperature = 15.60 [C]",
    "   **   ~~~   ** Controller actuator mass flow rate set to 32.26 [kg/s]",
    "   **   ~~~   ** Controller actuator temperature = 15.61 [C]",
    "   **   ~~~   **   Note: Chilled water coils should be reverse action and the entering chilled",
    "   **   ~~~   **         water temperature (controller actuator temperature) should be below the setpoint temperature",
    "   **   ~~~   **   Note: Hot water coils should be normal action and the entering hot",
    "   **   ~~~   **         water temperature (controller actuator temperature) should be above the setpoint temperature",
    "   ** Severe  ** FindRootSimpleController: Controller error for controller = \"CONTROLLER WATER COIL 6\"",
    "   **   ~~~   **  Environment=SACRAMENTO-EXECUTIVE_724830_CZ2010, at Simulation time=05/18 17:00 - 17:15",
    "   **   ~~~   **   Controller function is inconsistent with user specified controller action = Reverse action",
    "   **   ~~~   **   Actuator will be set to maximum action",
    "   **   ~~~   ** Controller control type=Temperature",
    "   **   ~~~   ** Controller temperature setpoint = 15.21 [C]",
    "   **   ~~~   ** Controller sensed temperature = 15.60 [C]",
    "   **   ~~~   ** Controller actuator mass flow rate set to 32.53 [kg/s]",
    "   **   ~~~   ** Controller actuator temperature = 15.61 [C]",
    "   **   ~~~   **   Note: Chilled water coils should be reverse action and the entering chilled",
    "   **   ~~~   **         water temperature (controller actuator temperature) should be below the setpoint temperature",
    "   **   ~~~   **   Note: Hot water coils should be normal action and the entering hot",
    "   **   ~~~   **         water temperature (controller actuator temperature) should be above the setpoint temperature",
    "   ** Severe  ** FindRootSimpleController: Controller error for controller = \"CONTROLLER WATER COIL 10\"",
    "   **   ~~~   **  Environment=SACRAMENTO-EXECUTIVE_724830_CZ2010, at Simulation time=05/18 17:00 - 17:15",
    "   **   ~~~   **   Controller function is inconsistent with user specified controller action = Reverse action",
    "   **   ~~~   **   Actuator will be set to maximum action",
    "   **   ~~~   ** Controller control type=Temperature",
    "   **   ~~~   ** Controller temperature setpoint = 15.21 [C]",
    "   **   ~~~   ** Controller sensed temperature = 15.60 [C]",
    "   **   ~~~   ** Controller actuator mass flow rate set to 8.49 [kg/s]",
    "   **   ~~~   ** Controller actuator temperature = 15.61 [C]",
    "   **   ~~~   **   Note: Chilled water coils should be reverse action and the entering chilled",
    "   **   ~~~   **         water temperature (controller actuator temperature) should be below the setpoint temperature",
    "   **   ~~~   **   Note: Hot water coils should be normal action and the entering hot",
    "   **   ~~~   **         water temperature (controller actuator temperature) should be above the setpoint temperature",
    "   ** Warning ** CoolingTower:VariableSpeed \"COOLING TOWER 1\" - Water flow rate ratio is outside model boundaries at 0.52.",
    "   **   ~~~   **  ...Valid range = 0.75 to 1.25. Occurrence info = SACRAMENTO-EXECUTIVE_724830_CZ2010, 05/20 11:00 - 11:08",
    "   **   ~~~   **  ...Water flow rate ratio passed to the model = 0.75000",
    "   **   ~~~   **  ...Water flow rate ratios outside model boundaries may not adversely affect tower performance.",
    "   ** Warning ** CoolingTower:VariableSpeed \"COOLING TOWER 1\" - Water flow rate ratio is outside model boundaries at 0.52.",
    "   **   ~~~   **  ...Valid range = 0.75 to 1.25. Occurrence info = SACRAMENTO-EXECUTIVE_724830_CZ2010, 05/20 11:15 - 11:22",
    "   **   ~~~   **  ...Water flow rate ratio passed to the model = 0.75000",
    "   **   ~~~   **  ...Water flow rate ratios outside model boundaries may not adversely affect tower performance.",
    "   ** Warning ** CoolingTower:VariableSpeed \"COOLING TOWER 1\" - Inlet air wet-bulb temperature is outside model boundaries at 26.68.",
    "   **   ~~~   **  ...Valid range = -1.00 to 26.67. Occurrence info = SACRAMENTO-EXECUTIVE_724830_CZ2010, 07/19 16:15 - 16:30",
    "   **   ~~~   **  ...Inlet air wet-bulb temperature passed to the model = 26.666700",
    "   **   ~~~   **  ...Wet-bulb temperatures outside model boundaries may not adversely affect tower performance.",
    "   ** Warning ** CoolingTower:VariableSpeed \"COOLING TOWER 1\" - Inlet air wet-bulb temperature is outside model boundaries at 26.81.",
    "   **   ~~~   **  ...Valid range = -1.00 to 26.67. Occurrence info = SACRAMENTO-EXECUTIVE_724830_CZ2010, 07/19 16:30 - 16:45",
    "   **   ~~~   **  ...Inlet air wet-bulb temperature passed to the model = 26.666700",
    "   **   ~~~   **  ...Wet-bulb temperatures outside model boundaries may not adversely affect tower performance.",
    "   ** Warning ** CoolingTower:VariableSpeed \"COOLING TOWER 1\" - Inlet air wet-bulb temperature is outside model boundaries at 26.94.",
    "   **   ~~~   **  ...Valid range = -1.00 to 26.67. Occurrence info = SACRAMENTO-EXECUTIVE_724830_CZ2010, 07/19 16:45 - 16:52",
    "   **   ~~~   **  ...Inlet air wet-bulb temperature passed to the model = 26.666700",
    "   **   ~~~   **  ...Wet-bulb temperatures outside model boundaries may not adversely affect tower performance.",
    "   ** Warning ** CoolingTower:VariableSpeed \"COOLING TOWER 1\" - Inlet air wet-bulb temperature is outside model boundaries at 26.94.",
    "   **   ~~~   **  ...Valid range = -1.00 to 26.67. Occurrence info = SACRAMENTO-EXECUTIVE_724830_CZ2010, 07/19 16:53 - 17:00",
    "   **   ~~~   **  ...Inlet air wet-bulb temperature passed to the model = 26.666700",
    "   **   ~~~   **  ...Wet-bulb temperatures outside model boundaries may not adversely affect tower performance.",
    "   ** Warning ** CoolingTower:VariableSpeed \"COOLING TOWER 1\" - Inlet air wet-bulb temperature is outside model boundaries at 26.79.",
    "   **   ~~~   **  ...Valid range = -1.00 to 26.67. Occurrence info = SACRAMENTO-EXECUTIVE_724830_CZ2010, 07/19 17:00 - 17:08",
    "   **   ~~~   **  ...Inlet air wet-bulb temperature passed to the model = 26.666700",
    "   **   ~~~   **  ...Wet-bulb temperatures outside model boundaries may not adversely affect tower performance.",
    "   ** Severe  ** FindRootSimpleController: Controller error for controller = \"CONTROLLER WATER COIL 2\"",
    "   **   ~~~   **  Environment=SACRAMENTO-EXECUTIVE_724830_CZ2010, at Simulation time=11/09 05:00 - 05:02",
    "   **   ~~~   **   Controller function is inconsistent with user specified controller action = Reverse action",
    "   **   ~~~   **   Actuator will be set to maximum action",
    "   **   ~~~   ** Controller control type=Temperature",
    "   **   ~~~   ** Controller temperature setpoint = 15.71 [C]",
    "   **   ~~~   ** Controller sensed temperature = 16.64 [C]",
    "   **   ~~~   ** Controller actuator mass flow rate set to 3.72 [kg/s]",
    "   **   ~~~   ** Controller actuator temperature = 16.68 [C]",
    "   **   ~~~   **   Note: Chilled water coils should be reverse action and the entering chilled",
    "   **   ~~~   **         water temperature (controller actuator temperature) should be below the setpoint temperature",
    "   **   ~~~   **   Note: Hot water coils should be normal action and the entering hot",
    "   **   ~~~   **         water temperature (controller actuator temperature) should be above the setpoint temperature",
    "   ** Warning ** The resource referenced by LifeCycleCost:UsePriceEscalation= \"U.S. AVG  COMMERCIAL-ELECTRICITY\" has no energy cost. ",
    "   **   ~~~   ** ... It is likely that the wrong resource is used. The resource should match the meter used in Utility:Tariff.",
    "   ** Warning ** The resource referenced by LifeCycleCost:UsePriceEscalation= \"U.S. AVG  COMMERCIAL-DISTILLATE OIL\" has no energy cost. ",
    "   **   ~~~   ** ... It is likely that the wrong resource is used. The resource should match the meter used in Utility:Tariff.",
    "   ** Warning ** The resource referenced by LifeCycleCost:UsePriceEscalation= \"U.S. AVG  COMMERCIAL-RESIDUAL OIL\" has no energy cost. ",
    "   **   ~~~   ** ... It is likely that the wrong resource is used. The resource should match the meter used in Utility:Tariff.",
    "   ** Warning ** The resource referenced by LifeCycleCost:UsePriceEscalation= \"U.S. AVG  COMMERCIAL-NATURAL GAS\" has no energy cost. ",
    "   **   ~~~   ** ... It is likely that the wrong resource is used. The resource should match the meter used in Utility:Tariff.",
    "   ** Warning ** The resource referenced by LifeCycleCost:UsePriceEscalation= \"U.S. AVG  COMMERCIAL-COAL\" has no energy cost. ",
    "   **   ~~~   ** ... It is likely that the wrong resource is used. The resource should match the meter used in Utility:Tariff.",
    "   ************* Simulation Error Summary *************",
    "   ************* There are 11 unused schedules in input.",
    "   ************* There are 7 unused week schedules in input.",
    "   ************* There are 13 unused day schedules in input.",
    "   ************* Use Output:Diagnostics,DisplayUnusedSchedules; to see them.",
    "   *************",
    "   ************* ===== Recurring Error Summary =====",
    "   ************* The following recurring error messages occurred.",
    "   *************",
    "   *************  ** Warning ** SimHVAC: Exceeding Maximum iterations for all HVAC loops, during SACRAMENTO-EXECUTIVE_724830_CZ2010 continues",
    "   *************  **   ~~~   **   This error occurred 9045 total times;",
    "   *************  **   ~~~   **   during Warmup 0 times;",
    "   *************  **   ~~~   **   during Sizing 0 times.",
    "   *************",
    "   *************  ** Warning ** GetSpecificHeatGlycol: Temperature out of range (too low) for fluid [WATER] specific heat **",
    "   *************  **   ~~~   **   This error occurred 82790 total times;",
    "   *************  **   ~~~   **   during Warmup 0 times;",
    "   *************  **   ~~~   **   during Sizing 0 times.",
    "   *************  **   ~~~   **   Max=-3.818105E-004 {C}  Min=-44880.682604 {C}",
    "   *************",
    "   *************  ** Warning ** GetDensityGlycol: Temperature out of range (too high) for fluid [WATER] density **",
    "   *************  **   ~~~   **   This error occurred 407886 total times;",
    "   *************  **   ~~~   **   during Warmup 0 times;",
    "   *************  **   ~~~   **   during Sizing 0 times.",
    "   *************  **   ~~~   **   Max=203.856972 {C}  Min=100.000142 {C}",
    "   *************",
    "   *************  ** Warning ** CoolingTower:VariableSpeed \"COOLING TOWER 1\" - Tower approach temperature is out of range error continues...",
    "   *************  **   ~~~   **   This error occurred 8645 total times;",
    "   *************  **   ~~~   **   during Warmup 0 times;",
    "   *************  **   ~~~   **   during Sizing 0 times.",
    "   *************  **   ~~~   **   Max=22.919967  Min=11.112456",
    "   *************",
    "   *************  ** Warning ** GetSpecificHeatGlycol: Temperature out of range (too high) for fluid [WATER] specific heat **",
    "   *************  **   ~~~   **   This error occurred 1323163 total times;",
    "   *************  **   ~~~   **   during Warmup 0 times;",
    "   *************  **   ~~~   **   during Sizing 0 times.",
    "   *************  **   ~~~   **   Max=21011.182852 {C}  Min=125.011861 {C}",
    "   *************",
    "   *************  ** Warning ** CoolingTower:VariableSpeed \"COOLING TOWER 1\" - Tower range temperature is out of range error continues...",
    "   *************  **   ~~~   **   This error occurred 5645 total times;",
    "   *************  **   ~~~   **   during Warmup 0 times;",
    "   *************  **   ~~~   **   during Sizing 0 times.",
    "   *************  **   ~~~   **   Max=18.177623  Min=-1.930912",
    "   *************",
    "   *************  ** Warning ** Plant loop exceeding upper temperature limit, PlantLoop=\"HIGHTEMP HW\"",
    "   *************  **   ~~~   **   This error occurred 34777 total times;",
    "   *************  **   ~~~   **   during Warmup 0 times;",
    "   *************  **   ~~~   **   during Sizing 0 times.",
    "   *************  **   ~~~   **   Max=203.856972",
    "   *************",
    "   *************  ** Severe  ** FindRootSimpleController: Previous controller action error continues for controller = CONTROLLER WATER COIL 4",
    "   *************  **   ~~~   **   This error occurred 40 total times;",
    "   *************  **   ~~~   **   during Warmup 0 times;",
    "   *************  **   ~~~   **   during Sizing 0 times.",
    "   *************",
    "   *************  ** Severe  ** FindRootSimpleController: Previous controller action error continues for controller = CONTROLLER WATER COIL 8",
    "   *************  **   ~~~   **   This error occurred 40 total times;",
    "   *************  **   ~~~   **   during Warmup 0 times;",
    "   *************  **   ~~~   **   during Sizing 0 times.",
    "   *************",
    "   *************  ** Severe  ** FindRootSimpleController: Previous controller action error continues for controller = CONTROLLER WATER COIL 6",
    "   *************  **   ~~~   **   This error occurred 37 total times;",
    "   *************  **   ~~~   **   during Warmup 0 times;",
    "   *************  **   ~~~   **   during Sizing 0 times.",
    "   *************",
    "   *************  ** Severe  ** FindRootSimpleController: Previous controller action error continues for controller = CONTROLLER WATER COIL 10",
    "   *************  **   ~~~   **   This error occurred 34 total times;",
    "   *************  **   ~~~   **   during Warmup 0 times;",
    "   *************  **   ~~~   **   during Sizing 0 times.",
    "   *************",
    "   *************  ** Warning ** CoolingTower:VariableSpeed \"COOLING TOWER 1\" - Water flow rate ratio is out of range error continues...",
    "   *************  **   ~~~   **   This error occurred 16 total times;",
    "   *************  **   ~~~   **   during Warmup 0 times;",
    "   *************  **   ~~~   **   during Sizing 0 times.",
    "   *************  **   ~~~   **   Max=0.524143  Min=0.523787",
    "   *************",
    "   *************  ** Warning ** CoolingTower:VariableSpeed \"COOLING TOWER 1\" - Inlet air wet-bulb temperature is out of range error continues...",
    "   *************  **   ~~~   **   This error occurred 1 total times;",
    "   *************  **   ~~~   **   during Warmup 0 times;",
    "   *************  **   ~~~   **   during Sizing 0 times.",
    "   *************  **   ~~~   **   Max=26.787076  Min=26.787076",
    "   *************",
    "   *************  ** Severe  ** FindRootSimpleController: Previous controller action error continues for controller = CONTROLLER WATER COIL 2",
    "   *************  **   ~~~   **   This error occurred 8 total times;",
    "   *************  **   ~~~   **   during Warmup 0 times;",
    "   *************  **   ~~~   **   during Sizing 0 times.",
    "   *************",
    "   ************* EnergyPlus Warmup Error Summary. During Warmup: 0 Warning; 0 Severe Errors.",
    "   ************* EnergyPlus Sizing Error Summary. During Sizing: 109 Warning; 0 Severe Errors.",
    "   ************* EnergyPlus Completed Successfully-- 1872176 Warning; 164 Severe Errors; "
  ],
  "seed_file": "in.osm",
  "steps": [
    {
      "arguments": {
      },
      "measure_dir_name": "openstudio_results",
      "result": {
        "measure_class_name": "OpenStudioResults",
        "measure_display_name": "OpenStudio Results",
        "measure_name": "openstudio_results",
        "measure_taxonomy": "Reporting.QAQC",
        "measure_type": "ReportingMeasure",
        "measure_uid": "a25386cd-60e4-46bc-8b11-c755f379d916",
        "measure_version_id": "02ad7007-fe7b-4747-bd7a-29d697c4d91a",
        "measure_version_modified": "20180711T183039Z",
        "measure_xml_checksum": "557BF06F",
        "stderr": "",
        "stdout": "",
        "step_errors": [

        ],
        "step_final_condition": "Generated report with 20 sections to ./report.html.",
        "step_info": [

        ],
        "step_initial_condition": "Gathering data from EnergyPlus SQL file and OSM model.",
        "step_result": "Success",
        "step_values": [
          {
            "name": "building_summary_section",
            "value": true
          },
          {
            "name": "annual_overview_section",
            "value": true
          },
          {
            "name": "monthly_overview_section",
            "value": true
          },
          {
            "name": "utility_bills_rates_section",
            "value": true
          },
          {
            "name": "envelope_section_section",
            "value": true
          },
          {
            "name": "space_type_breakdown_section",
            "value": true
          },
          {
            "name": "space_type_details_section",
            "value": true
          },
          {
            "name": "interior_lighting_section",
            "value": true
          },
          {
            "name": "plug_loads_section",
            "value": true
          },
          {
            "name": "exterior_light_section",
            "value": true
          },
          {
            "name": "water_use_section",
            "value": true
          },
          {
            "name": "hvac_load_profile",
            "value": true
          },
          {
            "name": "zone_condition_section",
            "value": true
          },
          {
            "name": "zone_summary_section",
            "value": true
          },
          {
            "name": "zone_equipment_detail_section",
            "value": true
          },
          {
            "name": "air_loops_detail_section",
            "value": true
          },
          {
            "name": "plant_loops_detail_section",
            "value": true
          },
          {
            "name": "outdoor_air_section",
            "value": true
          },
          {
            "name": "cost_summary_section",
            "value": true
          },
          {
            "name": "source_energy_section",
            "value": true
          },
          {
            "name": "schedules_overview_section",
            "value": true
          },
          {
            "name": "standards_gem_version",
            "value": "0.2.7"
          },
          {
            "name": "workflow_gem_version",
            "value": "1.3.3"
          },
          {
            "display_name": "Large Office",
            "name": "building_name",
            "value": "n/a"
          },
          {
            "name": "total_site_energy",
            "units": "kBtu",
            "value": 25019102.01
          },
          {
            "name": "net_site_energy",
            "units": "kBtu",
            "value": 25019102.01
          },
          {
            "name": "total_building_area",
            "units": "ft^2",
            "value": 958824.38
          },
          {
            "name": "total_site_eui",
            "units": "kBtu/ft^2",
            "value": 26.09
          },
          {
            "name": "eui",
            "units": "kBtu/ft^2",
            "value": 26.09
          },
          {
            "name": "unmet_hours_during_heating",
            "units": "hr",
            "value": 443.75
          },
          {
            "name": "unmet_hours_during_cooling",
            "units": "hr",
            "value": 21
          },
          {
            "name": "unmet_hours_during_occupied_heating",
            "units": "hr",
            "value": 16.5
          },
          {
            "name": "unmet_hours_during_occupied_cooling",
            "units": "hr",
            "value": 20.75
          },
          {
            "name": "unmet_hours_tolerance_heating",
            "units": "F",
            "value": 1.01
          },
          {
            "name": "unmet_hours_tolerance_cooling",
            "units": "F",
            "value": 1.01
          },
          {
            "name": "end_use_heating",
            "units": "kBtu",
            "value": 12758101.83
          },
          {
            "name": "end_use_cooling",
            "units": "kBtu",
            "value": 427778.3
          },
          {
            "name": "end_use_interior_lighting",
            "units": "kBtu",
            "value": 2798373.18
          },
          {
            "name": "end_use_exterior_lighting",
            "units": "kBtu",
            "value": 0
          },
          {
            "name": "end_use_interior_equipment",
            "units": "kBtu",
            "value": 7524227.25
          },
          {
            "name": "end_use_exterior_equipment",
            "units": "kBtu",
            "value": 0
          },
          {
            "name": "end_use_fans",
            "units": "kBtu",
            "value": 695223.86
          },
          {
            "name": "end_use_pumps",
            "units": "kBtu",
            "value": 193629.56
          },
          {
            "name": "end_use_heat_rejection",
            "units": "kBtu",
            "value": 29012.68
          },
          {
            "name": "end_use_humidification",
            "units": "kBtu",
            "value": 0
          },
          {
            "name": "end_use_heat_recovery",
            "units": "kBtu",
            "value": 0
          },
          {
            "name": "end_use_water_systems",
            "units": "kBtu",
            "value": 592755.35
          },
          {
            "name": "end_use_refrigeration",
            "units": "kBtu",
            "value": 0
          },
          {
            "name": "end_use_generators",
            "units": "kBtu",
            "value": 0
          },
          {
            "name": "fuel_electricity",
            "units": "kBtu",
            "value": 18477315.63
          },
          {
            "name": "fuel_natural_gas",
            "units": "kBtu",
            "value": 6541786.37
          },
          {
            "name": "fuel_additional_fuel",
            "units": "kBtu",
            "value": 0
          },
          {
            "name": "fuel_district_cooling",
            "units": "kBtu",
            "value": 0
          },
          {
            "name": "fuel_district_heating",
            "units": "kBtu",
            "value": 0
          },
          {
            "name": "end_use_electricity_heating",
            "units": "kWh",
            "value": 1995541.67
          },
          {
            "name": "end_use_electricity_cooling",
            "units": "kWh",
            "value": 125369.44
          },
          {
            "name": "end_use_electricity_interior_lighting",
            "units": "kWh",
            "value": 820122.22
          },
          {
            "name": "end_use_electricity_exterior_lighting",
            "units": "kWh",
            "value": 0
          },
          {
            "name": "end_use_electricity_interior_equipment",
            "units": "kWh",
            "value": 2205133.33
          },
          {
            "name": "end_use_electricity_exterior_equipment",
            "units": "kWh",
            "value": 0
          },
          {
            "name": "end_use_electricity_fans",
            "units": "kWh",
            "value": 203750
          },
          {
            "name": "end_use_electricity_pumps",
            "units": "kWh",
            "value": 56747.22
          },
          {
            "name": "end_use_electricity_heat_rejection",
            "units": "kWh",
            "value": 8502.78
          },
          {
            "name": "end_use_electricity_humidification",
            "units": "kWh",
            "value": 0
          },
          {
            "name": "end_use_electricity_heat_recovery",
            "units": "kWh",
            "value": 0
          },
          {
            "name": "end_use_electricity_water_systems",
            "units": "kWh",
            "value": 0
          },
          {
            "name": "end_use_electricity_refrigeration",
            "units": "kWh",
            "value": 0
          },
          {
            "name": "end_use_electricity_generators",
            "units": "kWh",
            "value": 0
          },
          {
            "name": "end_use_natural_gas_heating",
            "units": "therms",
            "value": 59501.79
          },
          {
            "name": "end_use_natural_gas_cooling",
            "units": "therms",
            "value": 0
          },
          {
            "name": "end_use_natural_gas_interior_lighting",
            "units": "therms",
            "value": 0
          },
          {
            "name": "end_use_natural_gas_exterior_lighting",
            "units": "therms",
            "value": 0
          },
          {
            "name": "end_use_natural_gas_interior_equipment",
            "units": "therms",
            "value": 0
          },
          {
            "name": "end_use_natural_gas_exterior_equipment",
            "units": "therms",
            "value": 0
          },
          {
            "name": "end_use_natural_gas_fans",
            "units": "therms",
            "value": 0
          },
          {
            "name": "end_use_natural_gas_pumps",
            "units": "therms",
            "value": 0
          },
          {
            "name": "end_use_natural_gas_heat_rejection",
            "units": "therms",
            "value": 0
          },
          {
            "name": "end_use_natural_gas_humidification",
            "units": "therms",
            "value": 0
          },
          {
            "name": "end_use_natural_gas_heat_recovery",
            "units": "therms",
            "value": 0
          },
          {
            "name": "end_use_natural_gas_water_systems",
            "units": "therms",
            "value": 5928.7
          },
          {
            "name": "end_use_natural_gas_refrigeration",
            "units": "therms",
            "value": 0
          },
          {
            "name": "end_use_natural_gas_generators",
            "units": "therms",
            "value": 0
          },
          {
            "name": "electricity_heating_ip",
            "units": "kWh",
            "value": 1995545.19
          },
          {
            "name": "electricity_cooling_ip",
            "units": "kWh",
            "value": 125369.16
          },
          {
            "name": "electricity_interior_lighting_ip",
            "units": "kWh",
            "value": 820121.67
          },
          {
            "name": "electricity_exterior_lighting_ip",
            "units": "kWh",
            "value": 0
          },
          {
            "name": "electricity_interior_equipment_ip",
            "units": "kWh",
            "value": 2205133.33
          },
          {
            "name": "electricity_exterior_equipment_ip",
            "units": "kWh",
            "value": 0
          },
          {
            "name": "electricity_fans_ip",
            "units": "kWh",
            "value": 203748.69
          },
          {
            "name": "electricity_pumps_ip",
            "units": "kWh",
            "value": 56748.3
          },
          {
            "name": "electricity_heat_rejection_ip",
            "units": "kWh",
            "value": 8503.96
          },
          {
            "name": "electricity_humidification_ip",
            "units": "kWh",
            "value": 0
          },
          {
            "name": "electricity_heat_recovery_ip",
            "units": "kWh",
            "value": 0
          },
          {
            "name": "electricity_water_systems_ip",
            "units": "kWh",
            "value": 0
          },
          {
            "name": "electricity_refrigeration_ip",
            "units": "kWh",
            "value": 0
          },
          {
            "name": "electricity_generators_ip",
            "units": "kWh",
            "value": 0
          },
          {
            "name": "electricity_ip",
            "units": "kWh",
            "value": 5415170.31
          },
          {
            "name": "natural_gas_heating_ip",
            "units": "MBtu",
            "value": 5949.03
          },
          {
            "name": "natural_gas_cooling_ip",
            "units": "MBtu",
            "value": 0
          },
          {
            "name": "natural_gas_interior_lighting_ip",
            "units": "MBtu",
            "value": 0
          },
          {
            "name": "natural_gas_exterior_lighting_ip",
            "units": "MBtu",
            "value": 0
          },
          {
            "name": "natural_gas_interior_equipment_ip",
            "units": "MBtu",
            "value": 0
          },
          {
            "name": "natural_gas_exterior_equipment_ip",
            "units": "MBtu",
            "value": 0
          },
          {
            "name": "natural_gas_fans_ip",
            "units": "MBtu",
            "value": 0
          },
          {
            "name": "natural_gas_pumps_ip",
            "units": "MBtu",
            "value": 0
          },
          {
            "name": "natural_gas_heat_rejection_ip",
            "units": "MBtu",
            "value": 0
          },
          {
            "name": "natural_gas_humidification_ip",
            "units": "MBtu",
            "value": 0
          },
          {
            "name": "natural_gas_heat_recovery_ip",
            "units": "MBtu",
            "value": 0
          },
          {
            "name": "natural_gas_water_systems_ip",
            "units": "MBtu",
            "value": 592.76
          },
          {
            "name": "natural_gas_refrigeration_ip",
            "units": "MBtu",
            "value": 0
          },
          {
            "name": "natural_gas_generators_ip",
            "units": "MBtu",
            "value": 0
          },
          {
            "name": "natural_gas_ip",
            "units": "MBtu",
            "value": 6541.78
          },
          {
            "name": "additional_fuel_heating_ip",
            "units": "MBtu",
            "value": 0
          },
          {
            "name": "additional_fuel_cooling_ip",
            "units": "MBtu",
            "value": 0
          },
          {
            "name": "additional_fuel_interior_lighting_ip",
            "units": "MBtu",
            "value": 0
          },
          {
            "name": "additional_fuel_exterior_lighting_ip",
            "units": "MBtu",
            "value": 0
          },
          {
            "name": "additional_fuel_interior_equipment_ip",
            "units": "MBtu",
            "value": 0
          },
          {
            "name": "additional_fuel_exterior_equipment_ip",
            "units": "MBtu",
            "value": 0
          },
          {
            "name": "additional_fuel_fans_ip",
            "units": "MBtu",
            "value": 0
          },
          {
            "name": "additional_fuel_pumps_ip",
            "units": "MBtu",
            "value": 0
          },
          {
            "name": "additional_fuel_heat_rejection_ip",
            "units": "MBtu",
            "value": 0
          },
          {
            "name": "additional_fuel_humidification_ip",
            "units": "MBtu",
            "value": 0
          },
          {
            "name": "additional_fuel_heat_recovery_ip",
            "units": "MBtu",
            "value": 0
          },
          {
            "name": "additional_fuel_water_systems_ip",
            "units": "MBtu",
            "value": 0
          },
          {
            "name": "additional_fuel_refrigeration_ip",
            "units": "MBtu",
            "value": 0
          },
          {
            "name": "additional_fuel_generators_ip",
            "units": "MBtu",
            "value": 0
          },
          {
            "name": "additional_fuel_ip",
            "units": "MBtu",
            "value": 0
          },
          {
            "name": "district_cooling_heating_ip",
            "units": "MBtu",
            "value": 0
          },
          {
            "name": "district_cooling_cooling_ip",
            "units": "MBtu",
            "value": 0
          },
          {
            "name": "district_cooling_interior_lighting_ip",
            "units": "MBtu",
            "value": 0
          },
          {
            "name": "district_cooling_exterior_lighting_ip",
            "units": "MBtu",
            "value": 0
          },
          {
            "name": "district_cooling_interior_equipment_ip",
            "units": "MBtu",
            "value": 0
          },
          {
            "name": "district_cooling_exterior_equipment_ip",
            "units": "MBtu",
            "value": 0
          },
          {
            "name": "district_cooling_fans_ip",
            "units": "MBtu",
            "value": 0
          },
          {
            "name": "district_cooling_pumps_ip",
            "units": "MBtu",
            "value": 0
          },
          {
            "name": "district_cooling_heat_rejection_ip",
            "units": "MBtu",
            "value": 0
          },
          {
            "name": "district_cooling_humidification_ip",
            "units": "MBtu",
            "value": 0
          },
          {
            "name": "district_cooling_heat_recovery_ip",
            "units": "MBtu",
            "value": 0
          },
          {
            "name": "district_cooling_water_systems_ip",
            "units": "MBtu",
            "value": 0
          },
          {
            "name": "district_cooling_refrigeration_ip",
            "units": "MBtu",
            "value": 0
          },
          {
            "name": "district_cooling_generators_ip",
            "units": "MBtu",
            "value": 0
          },
          {
            "name": "district_cooling_ip",
            "units": "MBtu",
            "value": 0
          },
          {
            "name": "district_heating_heating_ip",
            "units": "MBtu",
            "value": 0
          },
          {
            "name": "district_heating_cooling_ip",
            "units": "MBtu",
            "value": 0
          },
          {
            "name": "district_heating_interior_lighting_ip",
            "units": "MBtu",
            "value": 0
          },
          {
            "name": "district_heating_exterior_lighting_ip",
            "units": "MBtu",
            "value": 0
          },
          {
            "name": "district_heating_interior_equipment_ip",
            "units": "MBtu",
            "value": 0
          },
          {
            "name": "district_heating_exterior_equipment_ip",
            "units": "MBtu",
            "value": 0
          },
          {
            "name": "district_heating_fans_ip",
            "units": "MBtu",
            "value": 0
          },
          {
            "name": "district_heating_pumps_ip",
            "units": "MBtu",
            "value": 0
          },
          {
            "name": "district_heating_heat_rejection_ip",
            "units": "MBtu",
            "value": 0
          },
          {
            "name": "district_heating_humidification_ip",
            "units": "MBtu",
            "value": 0
          },
          {
            "name": "district_heating_heat_recovery_ip",
            "units": "MBtu",
            "value": 0
          },
          {
            "name": "district_heating_water_systems_ip",
            "units": "MBtu",
            "value": 0
          },
          {
            "name": "district_heating_refrigeration_ip",
            "units": "MBtu",
            "value": 0
          },
          {
            "name": "district_heating_generators_ip",
            "units": "MBtu",
            "value": 0
          },
          {
            "name": "district_heating_ip",
            "units": "MBtu",
            "value": 0
          },
          {
            "name": "water_heating_ip",
            "units": "MBtu",
            "value": 0
          },
          {
            "name": "water_cooling_ip",
            "units": "MBtu",
            "value": 0
          },
          {
            "name": "water_interior_lighting_ip",
            "units": "MBtu",
            "value": 0
          },
          {
            "name": "water_exterior_lighting_ip",
            "units": "MBtu",
            "value": 0
          },
          {
            "name": "water_interior_equipment_ip",
            "units": "MBtu",
            "value": 0
          },
          {
            "name": "water_exterior_equipment_ip",
            "units": "MBtu",
            "value": 0
          },
          {
            "name": "water_fans_ip",
            "units": "MBtu",
            "value": 0
          },
          {
            "name": "water_pumps_ip",
            "units": "MBtu",
            "value": 0
          },
          {
            "name": "water_heat_rejection_ip",
            "units": "MBtu",
            "value": 0
          },
          {
            "name": "water_humidification_ip",
            "units": "MBtu",
            "value": 0
          },
          {
            "name": "water_heat_recovery_ip",
            "units": "MBtu",
            "value": 0
          },
          {
            "name": "water_water_systems_ip",
            "units": "MBtu",
            "value": 0
          },
          {
            "name": "water_refrigeration_ip",
            "units": "MBtu",
            "value": 0
          },
          {
            "name": "water_generators_ip",
            "units": "MBtu",
            "value": 0
          },
          {
            "name": "water_ip",
            "units": "MBtu",
            "value": 0
          },
          {
            "name": "base_cz_12_flat_nonres_wood_framing_and_other_roof_u_039",
            "units": "ft^2",
            "value": 38352.97
          },
          {
            "name": "base_cz_12_nonres_metal_frame_wall_u_062",
            "units": "ft^2",
            "value": 74823.29
          },
          {
            "name": "base_all_cz_fixed_window_u_36",
            "units": "ft^2",
            "value": 49902.34
          },
          {
            "name": "gross_window_wall_ratio",
            "units": "%",
            "value": 38.06
          },
          {
            "name": "gross_window_wall_ratio_conditioned",
            "units": "%",
            "value": 53.8
          },
          {
            "name": "skylight_roof_ratio",
            "units": "%",
            "value": 0
          },
          {
            "name": "space_type_no_space_type",
            "units": "ft^2",
            "value": 958824.36
          },
          {
            "name": "exterior_lighting_total_power",
            "units": "W",
            "value": 0
          },
          {
            "name": "exterior_lighting_total_consumption",
            "units": "kWh",
            "value": 7332375
          },
          {
            "name": "basement_spc_water_use_equipment",
            "units": "gal/min",
            "value": 0.58
          },
          {
            "name": "core_bottom_water_use_equipment",
            "units": "gal/min",
            "value": 0.41
          },
          {
            "name": "core_hi_water_use_equipment",
            "units": "gal/min",
            "value": 2.04
          },
          {
            "name": "core_mid_water_use_equipment",
            "units": "gal/min",
            "value": 2.04
          },
          {
            "name": "core_top_water_use_equipment",
            "units": "gal/min",
            "value": 0.41
          },
          {
            "name": "perimeter_bot_zn_1_water_use_equipment",
            "units": "gal/min",
            "value": 0.05
          },
          {
            "name": "perimeter_bot_zn_2_water_use_equipment",
            "units": "gal/min",
            "value": 0.03
          },
          {
            "name": "perimeter_bot_zn_3_water_use_equipment",
            "units": "gal/min",
            "value": 0.05
          },
          {
            "name": "perimeter_bot_zn_4_water_use_equipment",
            "units": "gal/min",
            "value": 0.03
          },
          {
            "name": "perimeter_hi_zn_1_water_use_equipment",
            "units": "gal/min",
            "value": 0.25
          },
          {
            "name": "perimeter_hi_zn_2_water_use_equipment",
            "units": "gal/min",
            "value": 0.16
          },
          {
            "name": "perimeter_hi_zn_3_water_use_equipment",
            "units": "gal/min",
            "value": 0.25
          },
          {
            "name": "perimeter_hi_zn_4_water_use_equipment",
            "units": "gal/min",
            "value": 0.16
          },
          {
            "name": "perimeter_mid_zn_1_water_use_equipment",
            "units": "gal/min",
            "value": 0.25
          },
          {
            "name": "perimeter_mid_zn_2_water_use_equipment",
            "units": "gal/min",
            "value": 0.16
          },
          {
            "name": "perimeter_mid_zn_3_water_use_equipment",
            "units": "gal/min",
            "value": 0.25
          },
          {
            "name": "perimeter_mid_zn_4_water_use_equipment",
            "units": "gal/min",
            "value": 0.16
          },
          {
            "name": "perimeter_top_zn_1_water_use_equipment",
            "units": "gal/min",
            "value": 0.05
          },
          {
            "name": "perimeter_top_zn_2_water_use_equipment",
            "units": "gal/min",
            "value": 0.03
          },
          {
            "name": "perimeter_top_zn_3_water_use_equipment",
            "units": "gal/min",
            "value": 0.05
          },
          {
            "name": "perimeter_top_zn_4_water_use_equipment",
            "units": "gal/min",
            "value": 0.03
          },
          {
            "name": "inflation_approach",
            "value": "Constant Dollar"
          },
          {
            "name": "analysis_length",
            "units": "yrs",
            "value": 25
          },
          {
            "name": "annual_peak_electric_demand",
            "units": "kW",
            "value": 2418.67
          },
          {
            "name": "first_year_capital_cost",
            "units": "$",
            "value": 0
          },
          {
            "name": "annual_utility_cost",
            "units": "$",
            "value": 0
          },
          {
            "name": "total_lifecycle_cost",
            "units": "$",
            "value": 0
          }
        ],
        "step_warnings": [
          "Air Loops Detail section failed and was skipped because: undefined method `minimumSetpointTemperature' for #<OpenStudio::Model::OptionalSetpointManagerWarmest:0x0000001c005c78>. Detail on error follows.",
          "/home/julien/Software/Others/OpenStudio-resources/measures/openstudio_results/measure.rb:237:in `eval'\n/home/julien/Software/Others/OpenStudio-resources/measures/openstudio_results/resources/os_lib_reporting.rb:906:in `air_loop_component_summary_logic'\n/home/julien/Software/Others/OpenStudio-resources/measures/openstudio_results/resources/os_lib_reporting.rb:991:in `block (2 levels) in air_loops_detail_section'\n/home/julien/Software/Others/OpenStudio-resources/measures/openstudio_results/resources/os_lib_reporting.rb:984:in `each'\n/home/julien/Software/Others/OpenStudio-resources/measures/openstudio_results/resources/os_lib_reporting.rb:984:in `block in air_loops_detail_section'\n/home/julien/Software/Others/OpenStudio-resources/measures/openstudio_results/resources/os_lib_reporting.rb:969:in `each'\n/home/julien/Software/Others/OpenStudio-resources/measures/openstudio_results/resources/os_lib_reporting.rb:969:in `air_loops_detail_section'\n(eval):1:in `block in run'\n/home/julien/Software/Others/OpenStudio-resources/measures/openstudio_results/measure.rb:237:in `eval'\n/home/julien/Software/Others/OpenStudio-resources/measures/openstudio_results/measure.rb:237:in `block in run'\n/home/julien/Software/Others/OpenStudio-resources/measures/openstudio_results/measure.rb:233:in `each'\n/home/julien/Software/Others/OpenStudio-resources/measures/openstudio_results/measure.rb:233:in `run'\n:/ruby/2.2.0/gems/openstudio-workflow-1.3.3/lib/openstudio/workflow/util/measure.rb:471:in `apply_measure'\n:/ruby/2.2.0/gems/openstudio-workflow-1.3.3/lib/openstudio/workflow/util/measure.rb:74:in `block in apply_measures'\n:/ruby/2.2.0/gems/openstudio-workflow-1.3.3/lib/openstudio/workflow/util/measure.rb:32:in `each_index'\n:/ruby/2.2.0/gems/openstudio-workflow-1.3.3/lib/openstudio/workflow/util/measure.rb:32:in `apply_measures'\n:/ruby/2.2.0/gems/openstudio-workflow-1.3.3/lib/openstudio/workflow/jobs/run_reporting_measures.rb:85:in `perform'\n:/ruby/2.2.0/gems/openstudio-workflow-1.3.3/lib/openstudio/workflow/run.rb:269:in `step'\n:/ruby/2.2.0/gems/openstudio-workflow-1.3.3/lib/openstudio/workflow/run.rb:216:in `run'\n:/openstudio_cli.rb:920:in `execute'\n:/openstudio_cli.rb:709:in `execute'\n:/openstudio_cli.rb:1686:in `<main>'\neval:110:in `eval'\neval:110:in `require_embedded_absolute'\neval:95:in `block in require'\neval:89:in `each'\neval:89:in `require'\neval:2:in `<main>'"
        ]
      }
    }
  ],
  "weather_file": "../../weatherdata/USA_IL_Chicago-OHare.Intl.AP.725300_TMY3.epw"
}