{
  "completed_status": "Success",
  "current_step": 1,
  "eplusout_err": [
    "Program Version,EnergyPlus, Version 22.2.0-aa78da9668, ",
    "   ************* Beginning Zone Sizing Calculations",
    "   ** Warning ** ProcessScheduleInput: Schedule:Day:Interval=\"{00499E89-AC71-42D9-898E-39D36280FD5E}\", Blank Schedule Type Limits Name input -- will not be validated.",
    "   ** Warning ** ProcessScheduleInput: Schedule:Day:Interval=\"{1566B269-D62C-423E-B611-F1F6C46321FE}\", Blank Schedule Type Limits Name input -- will not be validated.",
    "   ** Warning ** ProcessScheduleInput: Schedule:Day:Interval=\"{405B201E-D223-44FF-AFE5-39EBC662EA8E}\", Blank Schedule Type Limits Name input -- will not be validated.",
    "   ** Warning ** ProcessScheduleInput: Schedule:Day:Interval=\"{5C83EB19-28CA-43A0-A476-F4F6DA1B7E89}\", Blank Schedule Type Limits Name input -- will not be validated.",
    "   ** Warning ** ProcessScheduleInput: Schedule:Day:Interval=\"{C44E049B-3BF7-475B-A00E-1CFB8ADFDECC}\", Blank Schedule Type Limits Name input -- will not be validated.",
    "   ** Warning ** ProcessScheduleInput: Schedule:Year=\"BACK_SPACE TARGET SHW TEMP\", Blank Schedule Type Limits Name input -- will not be validated.",
    "   ** Warning ** ProcessScheduleInput: Schedule:Year=\"CORE_RETAIL TARGET SHW TEMP\", Blank Schedule Type Limits Name input -- will not be validated.",
    "   ** Warning ** ProcessScheduleInput: Schedule:Year=\"FRONT_ENTRY TARGET SHW TEMP\", Blank Schedule Type Limits Name input -- will not be validated.",
    "   ** Warning ** ProcessScheduleInput: Schedule:Year=\"FRONT_RETAIL TARGET SHW TEMP\", Blank Schedule Type Limits Name input -- will not be validated.",
    "   ** Warning ** ProcessScheduleInput: Schedule:Year=\"POINT_OF_SALE TARGET SHW TEMP\", Blank Schedule Type Limits Name input -- will not be validated.",
    "   ** Warning ** ProcessScheduleInput: Schedule:Constant=\"ALWAYS OFF DISCRETE\", Blank Schedule Type Limits Name input -- will not be validated.",
    "   ** Warning ** ProcessScheduleInput: Schedule:Constant=\"ALWAYS ON CONTINUOUS\", Blank Schedule Type Limits Name input -- will not be validated.",
    "   ** Warning ** Weather file location will be used rather than entered (IDF) Location object.",
    "   **   ~~~   ** ..Location object={BD4A141C-A3D6-49F9-A577-6CE0516F11E6}",
    "   **   ~~~   ** ..Weather File Location=Chicago Ohare Intl Ap IL USA TMY3 WMO#=725300",
    "   **   ~~~   ** ..due to location differences, Latitude difference=[3.40] degrees, Longitude difference=[33.57] degrees.",
    "   **   ~~~   ** ..Time Zone difference=[2.0] hour(s), Elevation difference=[4972.68] percent, [197.04] meters.",
    "   ** Warning ** CheckUsedConstructions: There are 2 nominally unused constructions in input.",
    "   **   ~~~   ** For explicit details on each unused construction, use Output:Diagnostics,DisplayExtraWarnings;",
    "   ** Warning ** GetDaylightingControls: Fraction of zone or space controlled by the Daylighting reference points is < 1.0.",
    "   **   ~~~   ** ..discovered in Daylighting:Controls=\"FRONT_RETAIL THERMAL ZONE DAYLIGHTINGCONTROLS\", only 0.887 of the zone or space is controlled.",
    "   ** Warning ** GetDaylightingControls: Fraction of zone or space controlled by the Daylighting reference points is < 1.0.",
    "   **   ~~~   ** ..discovered in Daylighting:Controls=\"POINT_OF_SALE THERMAL ZONE DAYLIGHTINGCONTROLS\", only 0.887 of the zone or space is controlled.",
    "   ************* Beginning System Sizing Calculations",
    "   ** Warning ** Since Zone Minimum Air Flow Input Method = FIXEDFLOWRATE, input for Constant Minimum Air Flow Fraction will be ignored.",
    "   **   ~~~   ** Occurs in AirTerminal:SingleDuct:VAV:Reheat = BASEVAVTRMLUNIT",
    "   ** Warning ** Since Damper Heating Action = REVERSE, input for Maximum Flow Fraction During Reheat will be ignored.",
    "   **   ~~~   ** Occurs in AirTerminal:SingleDuct:VAV:Reheat = BASEVAVTRMLUNIT",
    "   ** Warning ** Since Zone Minimum Air Flow Input Method = FIXEDFLOWRATE, input for Constant Minimum Air Flow Fraction will be ignored.",
    "   **   ~~~   ** Occurs in AirTerminal:SingleDuct:VAV:Reheat = BASEVAVTRMLUNIT-2",
    "   ** Warning ** Since Damper Heating Action = REVERSE, input for Maximum Flow Fraction During Reheat will be ignored.",
    "   **   ~~~   ** Occurs in AirTerminal:SingleDuct:VAV:Reheat = BASEVAVTRMLUNIT-2",
    "   ** Warning ** Since Zone Minimum Air Flow Input Method = FIXEDFLOWRATE, input for Constant Minimum Air Flow Fraction will be ignored.",
    "   **   ~~~   ** Occurs in AirTerminal:SingleDuct:VAV:Reheat = BASEVAVTRMLUNIT-3",
    "   ** Warning ** Since Damper Heating Action = REVERSE, input for Maximum Flow Fraction During Reheat will be ignored.",
    "   **   ~~~   ** Occurs in AirTerminal:SingleDuct:VAV:Reheat = BASEVAVTRMLUNIT-3",
    "   ** Warning ** Since Zone Minimum Air Flow Input Method = FIXEDFLOWRATE, input for Constant Minimum Air Flow Fraction will be ignored.",
    "   **   ~~~   ** Occurs in AirTerminal:SingleDuct:VAV:Reheat = BASEVAVTRMLUNIT-4",
    "   ** Warning ** Since Damper Heating Action = REVERSE, input for Maximum Flow Fraction During Reheat will be ignored.",
    "   **   ~~~   ** Occurs in AirTerminal:SingleDuct:VAV:Reheat = BASEVAVTRMLUNIT-4",
    "   ************* Beginning Plant Sizing Calculations",
    "   ** Warning ** GetOAControllerInputs: Controller:MechanicalVentilation=\"BASESYS5 OACTRL MECH VENT CONTROLLER",
    "   **   ~~~   ** Cannot locate a matching DesignSpecification:ZoneAirDistribution object for Zone=\"BACK_SPACE THERMAL ZONE\".",
    "   **   ~~~   ** Using default zone air distribution effectiveness of 1.0 for heating and cooling.",
    "   ** Warning ** GetOAControllerInputs: Controller:MechanicalVentilation=\"BASESYS5 OACTRL MECH VENT CONTROLLER",
    "   **   ~~~   ** Cannot locate a matching DesignSpecification:ZoneAirDistribution object for Zone=\"CORE_RETAIL THERMAL ZONE\".",
    "   **   ~~~   ** Using default zone air distribution effectiveness of 1.0 for heating and cooling.",
    "   ** Warning ** GetOAControllerInputs: Controller:MechanicalVentilation=\"BASESYS5 OACTRL MECH VENT CONTROLLER",
    "   **   ~~~   ** Cannot locate a matching DesignSpecification:ZoneAirDistribution object for Zone=\"FRONT_RETAIL THERMAL ZONE\".",
    "   **   ~~~   ** Using default zone air distribution effectiveness of 1.0 for heating and cooling.",
    "   ** Warning ** GetOAControllerInputs: Controller:MechanicalVentilation=\"BASESYS5 OACTRL MECH VENT CONTROLLER",
    "   **   ~~~   ** Cannot locate a matching DesignSpecification:ZoneAirDistribution object for Zone=\"POINT_OF_SALE THERMAL ZONE\".",
    "   **   ~~~   ** Using default zone air distribution effectiveness of 1.0 for heating and cooling.",
    "   ** Warning ** Controller:MechanicalVentilation=\"BASESYS5 OACTRL MECH VENT CONTROLLER\", Zone OA/person rate",
    "   **   ~~~   ** For Zone=\"BACK_SPACE THERMAL ZONE\".",
    "   **   ~~~   ** Zone outside air per person rate not set in Design Specification Outdoor Air Object=\"BACK_SPACE THERMAL ZONE DESIGN SPECIFICATION OUTDOOR AIR\".",
    "   ** Warning ** The Standard Ratings is calculated for Coil:Cooling:DX:SingleSpeed = BASESYS5 COILCLG but not at the AHRI test condition due to curve out of bound.",
    "   **   ~~~   **  Review the Standard Ratings calculations in the Engineering Reference for this coil type. Also, use Output:Diagnostics, DisplayExtraWarnings for further guidance.",
    "   ** Warning ** Check input. Pump nominal power or motor efficiency is set to 0, for pump={9D5B4458-9361-4FB6-8C5F-F07979D82188}",
    "   ** Warning ** Output:Meter: invalid Key Name=\"DISTRICTCOOLING:FACILITY\" - not found.",
    "   ** Warning ** Output:Meter: invalid Key Name=\"DISTRICTHEATING:FACILITY\" - not found.",
    "   ** Warning ** Output:Meter:MeterFileOnly: invalid Key Name=\"COAL:FACILITY\" - not found.",
    "   ** Warning ** Output:Meter:MeterFileOnly: invalid Key Name=\"COGENERATION:COAL\" - not found.",
    "   ** Warning ** Output:Meter:MeterFileOnly: invalid Key Name=\"COGENERATION:DISTRICTCOOLING\" - not found.",
    "   ** Warning ** Output:Meter:MeterFileOnly: invalid Key Name=\"COGENERATION:DISTRICTHEATING\" - not found.",
    "   ** Warning ** Output:Meter:MeterFileOnly: invalid Key Name=\"COGENERATION:ELECTRICITY\" - not found.",
    "   ** Warning ** Output:Meter:MeterFileOnly: invalid Key Name=\"COGENERATION:NATURALGAS\" - not found.",
    "   ** Warning ** Output:Meter:MeterFileOnly: invalid Key Name=\"COOLING:COAL\" - not found.",
    "   ** Warning ** Output:Meter:MeterFileOnly: invalid Key Name=\"COOLING:DISTRICTCOOLING\" - not found.",
    "   ** Warning ** Output:Meter:MeterFileOnly: invalid Key Name=\"COOLING:DISTRICTHEATING\" - not found.",
    "   ** Warning ** Output:Meter:MeterFileOnly: invalid Key Name=\"COOLING:NATURALGAS\" - not found.",
    "   ** Warning ** Output:Meter:MeterFileOnly: invalid Key Name=\"DISTRICTCOOLING:FACILITY\" - not found.",
    "   ** Warning ** Output:Meter:MeterFileOnly: invalid Key Name=\"DISTRICTHEATING:FACILITY\" - not found.",
    "   ** Warning ** Output:Meter:MeterFileOnly: invalid Key Name=\"EXTERIOREQUIPMENT:COAL\" - not found.",
    "   ** Warning ** Output:Meter:MeterFileOnly: invalid Key Name=\"EXTERIOREQUIPMENT:DISTRICTCOOLING\" - not found.",
    "   ** Warning ** Output:Meter:MeterFileOnly: invalid Key Name=\"EXTERIOREQUIPMENT:DISTRICTHEATING\" - not found.",
    "   ** Warning ** Output:Meter:MeterFileOnly: invalid Key Name=\"EXTERIOREQUIPMENT:ELECTRICITY\" - not found.",
    "   ** Warning ** Output:Meter:MeterFileOnly: invalid Key Name=\"EXTERIOREQUIPMENT:NATURALGAS\" - not found.",
    "   ** Warning ** Output:Meter:MeterFileOnly: invalid Key Name=\"EXTERIORLIGHTS:COAL\" - not found.",
    "   ** Warning ** Output:Meter:MeterFileOnly: invalid Key Name=\"EXTERIORLIGHTS:DISTRICTCOOLING\" - not found.",
    "   ** Warning ** Output:Meter:MeterFileOnly: invalid Key Name=\"EXTERIORLIGHTS:DISTRICTHEATING\" - not found.",
    "   ** Warning ** Output:Meter:MeterFileOnly: invalid Key Name=\"EXTERIORLIGHTS:ELECTRICITY\" - not found.",
    "   ** Warning ** Output:Meter:MeterFileOnly: invalid Key Name=\"EXTERIORLIGHTS:NATURALGAS\" - not found.",
    "   ** Warning ** Output:Meter:MeterFileOnly: invalid Key Name=\"FANS:COAL\" - not found.",
    "   ** Warning ** Output:Meter:MeterFileOnly: invalid Key Name=\"FANS:DISTRICTCOOLING\" - not found.",
    "   ** Warning ** Output:Meter:MeterFileOnly: invalid Key Name=\"FANS:DISTRICTHEATING\" - not found.",
    "   ** Warning ** Output:Meter:MeterFileOnly: invalid Key Name=\"FANS:NATURALGAS\" - not found.",
    "   ** Warning ** Output:Meter:MeterFileOnly: invalid Key Name=\"HEATING:COAL\" - not found.",
    "   ** Warning ** Output:Meter:MeterFileOnly: invalid Key Name=\"HEATING:DISTRICTCOOLING\" - not found.",
    "   ** Warning ** Output:Meter:MeterFileOnly: invalid Key Name=\"HEATING:DISTRICTHEATING\" - not found.",
    "   ** Warning ** Output:Meter:MeterFileOnly: invalid Key Name=\"HEATRECOVERY:COAL\" - not found.",
    "   ** Warning ** Output:Meter:MeterFileOnly: invalid Key Name=\"HEATRECOVERY:DISTRICTCOOLING\" - not found.",
    "   ** Warning ** Output:Meter:MeterFileOnly: invalid Key Name=\"HEATRECOVERY:DISTRICTHEATING\" - not found.",
    "   ** Warning ** Output:Meter:MeterFileOnly: invalid Key Name=\"HEATRECOVERY:ELECTRICITY\" - not found.",
    "   ** Warning ** Output:Meter:MeterFileOnly: invalid Key Name=\"HEATRECOVERY:NATURALGAS\" - not found.",
    "   ** Warning ** Output:Meter:MeterFileOnly: invalid Key Name=\"HEATREJECTION:COAL\" - not found.",
    "   ** Warning ** Output:Meter:MeterFileOnly: invalid Key Name=\"HEATREJECTION:DISTRICTCOOLING\" - not found.",
    "   ** Warning ** Output:Meter:MeterFileOnly: invalid Key Name=\"HEATREJECTION:DISTRICTHEATING\" - not found.",
    "   ** Warning ** Output:Meter:MeterFileOnly: invalid Key Name=\"HEATREJECTION:ELECTRICITY\" - not found.",
    "   ** Warning ** Output:Meter:MeterFileOnly: invalid Key Name=\"HEATREJECTION:NATURALGAS\" - not found.",
    "   ** Warning ** Output:Meter:MeterFileOnly: invalid Key Name=\"HUMIDIFIER:COAL\" - not found.",
    "   ** Warning ** Output:Meter:MeterFileOnly: invalid Key Name=\"HUMIDIFIER:DISTRICTCOOLING\" - not found.",
    "   ** Warning ** Output:Meter:MeterFileOnly: invalid Key Name=\"HUMIDIFIER:DISTRICTHEATING\" - not found.",
    "   ** Warning ** Output:Meter:MeterFileOnly: invalid Key Name=\"HUMIDIFIER:ELECTRICITY\" - not found.",
    "   ** Warning ** Output:Meter:MeterFileOnly: invalid Key Name=\"HUMIDIFIER:NATURALGAS\" - not found.",
    "   ** Warning ** Output:Meter:MeterFileOnly: invalid Key Name=\"INTERIOREQUIPMENT:COAL\" - not found.",
    "   ** Warning ** Output:Meter:MeterFileOnly: invalid Key Name=\"INTERIOREQUIPMENT:DISTRICTCOOLING\" - not found.",
    "   ** Warning ** Output:Meter:MeterFileOnly: invalid Key Name=\"INTERIOREQUIPMENT:DISTRICTHEATING\" - not found.",
    "   ** Warning ** Output:Meter:MeterFileOnly: invalid Key Name=\"INTERIOREQUIPMENT:NATURALGAS\" - not found.",
    "   ** Warning ** Output:Meter:MeterFileOnly: invalid Key Name=\"INTERIORLIGHTS:COAL\" - not found.",
    "   ** Warning ** Output:Meter:MeterFileOnly: invalid Key Name=\"INTERIORLIGHTS:DISTRICTCOOLING\" - not found.",
    "   ** Warning ** Output:Meter:MeterFileOnly: invalid Key Name=\"INTERIORLIGHTS:DISTRICTHEATING\" - not found.",
    "   ** Warning ** Output:Meter:MeterFileOnly: invalid Key Name=\"INTERIORLIGHTS:NATURALGAS\" - not found.",
    "   ** Warning ** Output:Meter:MeterFileOnly: invalid Key Name=\"INTERNAL TRANSPORT:INTERIOREQUIPMENT:ELECTRICITY\" - not found.",
    "   ** Warning ** Output:Meter:MeterFileOnly: invalid Key Name=\"NONREG LTG:EXTERIORLIGHTS:ELECTRICITY\" - not found.",
    "   ** Warning ** Output:Meter:MeterFileOnly: invalid Key Name=\"PROCESS:EXTERIOREQUIPMENT:ELECTRICITY\" - not found.",
    "   ** Warning ** Output:Meter:MeterFileOnly: invalid Key Name=\"PROCESS:EXTERIOREQUIPMENT:NATURALGAS\" - not found.",
    "   ** Warning ** Output:Meter:MeterFileOnly: invalid Key Name=\"PROCESS:INTERIOREQUIPMENT:ELECTRICITY\" - not found.",
    "   ** Warning ** Output:Meter:MeterFileOnly: invalid Key Name=\"PROCESS:INTERIOREQUIPMENT:NATURALGAS\" - not found.",
    "   ** Warning ** Output:Meter:MeterFileOnly: invalid Key Name=\"PUMPS:COAL\" - not found.",
    "   ** Warning ** Output:Meter:MeterFileOnly: invalid Key Name=\"PUMPS:DISTRICTCOOLING\" - not found.",
    "   ** Warning ** Output:Meter:MeterFileOnly: invalid Key Name=\"PUMPS:DISTRICTHEATING\" - not found.",
    "   ** Warning ** Output:Meter:MeterFileOnly: invalid Key Name=\"PUMPS:NATURALGAS\" - not found.",
    "   ** Warning ** Output:Meter:MeterFileOnly: invalid Key Name=\"RECEPTACLE:EXTERIOREQUIPMENT:ELECTRICITY\" - not found.",
    "   ** Warning ** Output:Meter:MeterFileOnly: invalid Key Name=\"RECEPTACLE:EXTERIOREQUIPMENT:NATURALGAS\" - not found.",
    "   ** Warning ** Output:Meter:MeterFileOnly: invalid Key Name=\"RECEPTACLE:INTERIOREQUIPMENT:NATURALGAS\" - not found.",
    "   ** Warning ** Output:Meter:MeterFileOnly: invalid Key Name=\"REFRIG:EXTERIOREQUIPMENT:ELECTRICITY\" - not found.",
    "   ** Warning ** Output:Meter:MeterFileOnly: invalid Key Name=\"REFRIG:INTERIOREQUIPMENT:ELECTRICITY\" - not found.",
    "   ** Warning ** Output:Meter:MeterFileOnly: invalid Key Name=\"REFRIGERATION:COAL\" - not found.",
    "   ** Warning ** Output:Meter:MeterFileOnly: invalid Key Name=\"REFRIGERATION:DISTRICTCOOLING\" - not found.",
    "   ** Warning ** Output:Meter:MeterFileOnly: invalid Key Name=\"REFRIGERATION:DISTRICTHEATING\" - not found.",
    "   ** Warning ** Output:Meter:MeterFileOnly: invalid Key Name=\"REFRIGERATION:ELECTRICITY\" - not found.",
    "   ** Warning ** Output:Meter:MeterFileOnly: invalid Key Name=\"REFRIGERATION:NATURALGAS\" - not found.",
    "   ** Warning ** Output:Meter:MeterFileOnly: invalid Key Name=\"REG LTG:EXTERIORLIGHTS:ELECTRICITY\" - not found.",
    "   ** Warning ** Output:Meter:MeterFileOnly: invalid Key Name=\"WATERSYSTEMS:COAL\" - not found.",
    "   ** Warning ** Output:Meter:MeterFileOnly: invalid Key Name=\"WATERSYSTEMS:DISTRICTCOOLING\" - not found.",
    "   ** Warning ** Output:Meter:MeterFileOnly: invalid Key Name=\"WATERSYSTEMS:DISTRICTHEATING\" - not found.",
    "   ** Warning ** Output:Meter:MeterFileOnly: invalid Key Name=\"WATERSYSTEMS:ELECTRICITY\" - not found.",
    "   ** Warning ** Output:Meter:MeterFileOnly requested for \"Electricity:Facility\" (TimeStep), already on \"Output:Meter\". Will report to both eplusout.eso and eplusout.mtr",
    "   ************* Testing Individual Branch Integrity",
    "   ************* All Branches passed integrity testing",
    "   ************* Testing Individual Supply Air Path Integrity",
    "   ************* All Supply Air Paths passed integrity testing",
    "   ************* Testing Individual Return Air Path Integrity",
    "   ************* All Return Air Paths passed integrity testing",
    "   ************* No node connection errors were found.",
    "   ************* Beginning Simulation",
    "   ** Warning ** CalcEquipmentFlowRates: \"BACK_SPACE WATER USE EQUIPMENT\" - Target water temperature is greater than the hot water temperature by (1.06 C)",
    "   **   ~~~   **  Environment=SACRAMENTO-EXECUTIVE_724830_CZ2010, at Simulation time=01/01 00:00 - 00:15",
    "   **   ~~~   ** ...target water temperature     = 57.22 C",
    "   **   ~~~   ** ...hot water temperature        = 56.16 C",
    "   **   ~~~   ** ...Target water temperature should be less than or equal to the hot water temperature. Verify temperature setpoints and schedules.",
    "   ** Warning ** CalcEquipmentFlowRates: \"CORE_RETAIL WATER USE EQUIPMENT\" - Target water temperature is greater than the hot water temperature by (1.06 C)",
    "   **   ~~~   **  Environment=SACRAMENTO-EXECUTIVE_724830_CZ2010, at Simulation time=01/01 00:00 - 00:15",
    "   **   ~~~   ** ...target water temperature     = 57.22 C",
    "   **   ~~~   ** ...hot water temperature        = 56.16 C",
    "   **   ~~~   ** ...Target water temperature should be less than or equal to the hot water temperature. Verify temperature setpoints and schedules.",
    "   ** Warning ** CalcEquipmentFlowRates: \"FRONT_ENTRY WATER USE EQUIPMENT\" - Target water temperature is greater than the hot water temperature by (1.06 C)",
    "   **   ~~~   **  Environment=SACRAMENTO-EXECUTIVE_724830_CZ2010, at Simulation time=01/01 00:00 - 00:15",
    "   **   ~~~   ** ...target water temperature     = 57.22 C",
    "   **   ~~~   ** ...hot water temperature        = 56.16 C",
    "   **   ~~~   ** ...Target water temperature should be less than or equal to the hot water temperature. Verify temperature setpoints and schedules.",
    "   ** Warning ** CalcEquipmentFlowRates: \"FRONT_RETAIL WATER USE EQUIPMENT\" - Target water temperature is greater than the hot water temperature by (1.06 C)",
    "   **   ~~~   **  Environment=SACRAMENTO-EXECUTIVE_724830_CZ2010, at Simulation time=01/01 00:00 - 00:15",
    "   **   ~~~   ** ...target water temperature     = 57.22 C",
    "   **   ~~~   ** ...hot water temperature        = 56.16 C",
    "   **   ~~~   ** ...Target water temperature should be less than or equal to the hot water temperature. Verify temperature setpoints and schedules.",
    "   ** Warning ** CalcEquipmentFlowRates: \"POINT_OF_SALE WATER USE EQUIPMENT\" - Target water temperature is greater than the hot water temperature by (1.06 C)",
    "   **   ~~~   **  Environment=SACRAMENTO-EXECUTIVE_724830_CZ2010, at Simulation time=01/01 00:00 - 00:15",
    "   **   ~~~   ** ...target water temperature     = 57.22 C",
    "   **   ~~~   ** ...hot water temperature        = 56.16 C",
    "   **   ~~~   ** ...Target water temperature should be less than or equal to the hot water temperature. Verify temperature setpoints and schedules.",
    "   ** Warning ** In Output:Table:Monthly 'BUILDING ENERGY PERFORMANCE - ELECTRICITY' invalid Variable or Meter Name 'EXTERIORLIGHTS:ELECTRICITY'",
    "   ** Warning ** In Output:Table:Monthly 'BUILDING ENERGY PERFORMANCE - ELECTRICITY' invalid Variable or Meter Name 'EXTERIOREQUIPMENT:ELECTRICITY'",
    "   ** Warning ** In Output:Table:Monthly 'BUILDING ENERGY PERFORMANCE - ELECTRICITY' invalid Variable or Meter Name 'HEATREJECTION:ELECTRICITY'",
    "   ** Warning ** In Output:Table:Monthly 'BUILDING ENERGY PERFORMANCE - ELECTRICITY' invalid Variable or Meter Name 'HUMIDIFIER:ELECTRICITY'",
    "   ** Warning ** In Output:Table:Monthly 'BUILDING ENERGY PERFORMANCE - ELECTRICITY' invalid Variable or Meter Name 'HEATRECOVERY:ELECTRICITY'",
    "   ** Warning ** In Output:Table:Monthly 'BUILDING ENERGY PERFORMANCE - ELECTRICITY' invalid Variable or Meter Name 'WATERSYSTEMS:ELECTRICITY'",
    "   ** Warning ** In Output:Table:Monthly 'BUILDING ENERGY PERFORMANCE - ELECTRICITY' invalid Variable or Meter Name 'COGENERATION:ELECTRICITY'",
    "   ** Warning ** In Output:Table:Monthly 'BUILDING ENERGY PERFORMANCE - ELECTRICITY' invalid Variable or Meter Name 'REFRIGERATION:ELECTRICITY'",
    "   ** Warning ** In Output:Table:Monthly 'BUILDING ENERGY PERFORMANCE - NATURAL GAS' invalid Variable or Meter Name 'INTERIOREQUIPMENT:NATURALGAS'",
    "   ** Warning ** In Output:Table:Monthly 'BUILDING ENERGY PERFORMANCE - NATURAL GAS' invalid Variable or Meter Name 'EXTERIOREQUIPMENT:NATURALGAS'",
    "   ** Warning ** In Output:Table:Monthly 'BUILDING ENERGY PERFORMANCE - NATURAL GAS' invalid Variable or Meter Name 'COOLING:NATURALGAS'",
    "   ** Warning ** In Output:Table:Monthly 'BUILDING ENERGY PERFORMANCE - NATURAL GAS' invalid Variable or Meter Name 'COGENERATION:NATURALGAS'",
    "   ** Warning ** In Output:Table:Monthly 'BUILDING ENERGY PERFORMANCE - DISTRICT HEATING' invalid Variable or Meter Name 'INTERIORLIGHTS:DISTRICTHEATING'",
    "   ** Warning ** In Output:Table:Monthly 'BUILDING ENERGY PERFORMANCE - DISTRICT HEATING' invalid Variable or Meter Name 'EXTERIORLIGHTS:DISTRICTHEATING'",
    "   ** Warning ** In Output:Table:Monthly 'BUILDING ENERGY PERFORMANCE - DISTRICT HEATING' invalid Variable or Meter Name 'INTERIOREQUIPMENT:DISTRICTHEATING'",
    "   ** Warning ** In Output:Table:Monthly 'BUILDING ENERGY PERFORMANCE - DISTRICT HEATING' invalid Variable or Meter Name 'EXTERIOREQUIPMENT:DISTRICTHEATING'",
    "   ** Warning ** In Output:Table:Monthly 'BUILDING ENERGY PERFORMANCE - DISTRICT HEATING' invalid Variable or Meter Name 'FANS:DISTRICTHEATING'",
    "   ** Warning ** In Output:Table:Monthly 'BUILDING ENERGY PERFORMANCE - DISTRICT HEATING' invalid Variable or Meter Name 'PUMPS:DISTRICTHEATING'",
    "   ** Warning ** In Output:Table:Monthly 'BUILDING ENERGY PERFORMANCE - DISTRICT HEATING' invalid Variable or Meter Name 'HEATING:DISTRICTHEATING'",
    "   ** Warning ** In Output:Table:Monthly 'BUILDING ENERGY PERFORMANCE - DISTRICT HEATING' invalid Variable or Meter Name 'COOLING:DISTRICTHEATING'",
    "   ** Warning ** In Output:Table:Monthly 'BUILDING ENERGY PERFORMANCE - DISTRICT HEATING' invalid Variable or Meter Name 'HEATREJECTION:DISTRICTHEATING'",
    "   ** Warning ** In Output:Table:Monthly 'BUILDING ENERGY PERFORMANCE - DISTRICT HEATING' invalid Variable or Meter Name 'HUMIDIFIER:DISTRICTHEATING'",
    "   ** Warning ** In Output:Table:Monthly 'BUILDING ENERGY PERFORMANCE - DISTRICT HEATING' invalid Variable or Meter Name 'HEATRECOVERY:DISTRICTHEATING'",
    "   ** Warning ** In Output:Table:Monthly 'BUILDING ENERGY PERFORMANCE - DISTRICT HEATING' invalid Variable or Meter Name 'WATERSYSTEMS:DISTRICTHEATING'",
    "   ** Warning ** In Output:Table:Monthly 'BUILDING ENERGY PERFORMANCE - DISTRICT HEATING' invalid Variable or Meter Name 'COGENERATION:DISTRICTHEATING'",
    "   ** Warning ** In Output:Table:Monthly 'BUILDING ENERGY PERFORMANCE - DISTRICT COOLING' invalid Variable or Meter Name 'INTERIORLIGHTS:DISTRICTCOOLING'",
    "   ** Warning ** In Output:Table:Monthly 'BUILDING ENERGY PERFORMANCE - DISTRICT COOLING' invalid Variable or Meter Name 'EXTERIORLIGHTS:DISTRICTCOOLING'",
    "   ** Warning ** In Output:Table:Monthly 'BUILDING ENERGY PERFORMANCE - DISTRICT COOLING' invalid Variable or Meter Name 'INTERIOREQUIPMENT:DISTRICTCOOLING'",
    "   ** Warning ** In Output:Table:Monthly 'BUILDING ENERGY PERFORMANCE - DISTRICT COOLING' invalid Variable or Meter Name 'EXTERIOREQUIPMENT:DISTRICTCOOLING'",
    "   ** Warning ** In Output:Table:Monthly 'BUILDING ENERGY PERFORMANCE - DISTRICT COOLING' invalid Variable or Meter Name 'FANS:DISTRICTCOOLING'",
    "   ** Warning ** In Output:Table:Monthly 'BUILDING ENERGY PERFORMANCE - DISTRICT COOLING' invalid Variable or Meter Name 'PUMPS:DISTRICTCOOLING'",
    "   ** Warning ** In Output:Table:Monthly 'BUILDING ENERGY PERFORMANCE - DISTRICT COOLING' invalid Variable or Meter Name 'HEATING:DISTRICTCOOLING'",
    "   ** Warning ** In Output:Table:Monthly 'BUILDING ENERGY PERFORMANCE - DISTRICT COOLING' invalid Variable or Meter Name 'COOLING:DISTRICTCOOLING'",
    "   ** Warning ** In Output:Table:Monthly 'BUILDING ENERGY PERFORMANCE - DISTRICT COOLING' invalid Variable or Meter Name 'HEATREJECTION:DISTRICTCOOLING'",
    "   ** Warning ** In Output:Table:Monthly 'BUILDING ENERGY PERFORMANCE - DISTRICT COOLING' invalid Variable or Meter Name 'HUMIDIFIER:DISTRICTCOOLING'",
    "   ** Warning ** In Output:Table:Monthly 'BUILDING ENERGY PERFORMANCE - DISTRICT COOLING' invalid Variable or Meter Name 'HEATRECOVERY:DISTRICTCOOLING'",
    "   ** Warning ** In Output:Table:Monthly 'BUILDING ENERGY PERFORMANCE - DISTRICT COOLING' invalid Variable or Meter Name 'WATERSYSTEMS:DISTRICTCOOLING'",
    "   ** Warning ** In Output:Table:Monthly 'BUILDING ENERGY PERFORMANCE - DISTRICT COOLING' invalid Variable or Meter Name 'COGENERATION:DISTRICTCOOLING'",
    "   ** Warning ** In Output:Table:Monthly 'BUILDING ENERGY PERFORMANCE - ELECTRICITY PEAK DEMAND' invalid Variable or Meter Name 'EXTERIORLIGHTS:ELECTRICITY'",
    "   ** Warning ** In Output:Table:Monthly 'BUILDING ENERGY PERFORMANCE - ELECTRICITY PEAK DEMAND' invalid Variable or Meter Name 'EXTERIOREQUIPMENT:ELECTRICITY'",
    "   ** Warning ** In Output:Table:Monthly 'BUILDING ENERGY PERFORMANCE - ELECTRICITY PEAK DEMAND' invalid Variable or Meter Name 'HEATREJECTION:ELECTRICITY'",
    "   ** Warning ** In Output:Table:Monthly 'BUILDING ENERGY PERFORMANCE - ELECTRICITY PEAK DEMAND' invalid Variable or Meter Name 'HUMIDIFIER:ELECTRICITY'",
    "   ** Warning ** In Output:Table:Monthly 'BUILDING ENERGY PERFORMANCE - ELECTRICITY PEAK DEMAND' invalid Variable or Meter Name 'HEATRECOVERY:ELECTRICITY'",
    "   ** Warning ** In Output:Table:Monthly 'BUILDING ENERGY PERFORMANCE - ELECTRICITY PEAK DEMAND' invalid Variable or Meter Name 'WATERSYSTEMS:ELECTRICITY'",
    "   ** Warning ** In Output:Table:Monthly 'BUILDING ENERGY PERFORMANCE - ELECTRICITY PEAK DEMAND' invalid Variable or Meter Name 'COGENERATION:ELECTRICITY'",
    "   ** Warning ** In Output:Table:Monthly 'BUILDING ENERGY PERFORMANCE - NATURAL GAS PEAK DEMAND' invalid Variable or Meter Name 'INTERIOREQUIPMENT:NATURALGAS'",
    "   ** Warning ** In Output:Table:Monthly 'BUILDING ENERGY PERFORMANCE - NATURAL GAS PEAK DEMAND' invalid Variable or Meter Name 'EXTERIOREQUIPMENT:NATURALGAS'",
    "   ** Warning ** In Output:Table:Monthly 'BUILDING ENERGY PERFORMANCE - NATURAL GAS PEAK DEMAND' invalid Variable or Meter Name 'COOLING:NATURALGAS'",
    "   ** Warning ** In Output:Table:Monthly 'BUILDING ENERGY PERFORMANCE - NATURAL GAS PEAK DEMAND' invalid Variable or Meter Name 'COGENERATION:NATURALGAS'",
    "   ** Warning ** In Output:Table:Monthly 'BUILDING ENERGY PERFORMANCE - DISTRICT HEATING PEAK DEMAND' invalid Variable or Meter Name 'DISTRICTHEATING:FACILITY'",
    "   ** Warning ** In Output:Table:Monthly 'BUILDING ENERGY PERFORMANCE - DISTRICT HEATING PEAK DEMAND' invalid Variable or Meter Name 'INTERIORLIGHTS:DISTRICTHEATING'",
    "   ** Warning ** In Output:Table:Monthly 'BUILDING ENERGY PERFORMANCE - DISTRICT HEATING PEAK DEMAND' invalid Variable or Meter Name 'EXTERIORLIGHTS:DISTRICTHEATING'",
    "   ** Warning ** In Output:Table:Monthly 'BUILDING ENERGY PERFORMANCE - DISTRICT HEATING PEAK DEMAND' invalid Variable or Meter Name 'INTERIOREQUIPMENT:DISTRICTHEATING'",
    "   ** Warning ** In Output:Table:Monthly 'BUILDING ENERGY PERFORMANCE - DISTRICT HEATING PEAK DEMAND' invalid Variable or Meter Name 'EXTERIOREQUIPMENT:DISTRICTHEATING'",
    "   ** Warning ** In Output:Table:Monthly 'BUILDING ENERGY PERFORMANCE - DISTRICT HEATING PEAK DEMAND' invalid Variable or Meter Name 'FANS:DISTRICTHEATING'",
    "   ** Warning ** In Output:Table:Monthly 'BUILDING ENERGY PERFORMANCE - DISTRICT HEATING PEAK DEMAND' invalid Variable or Meter Name 'PUMPS:DISTRICTHEATING'",
    "   ** Warning ** In Output:Table:Monthly 'BUILDING ENERGY PERFORMANCE - DISTRICT HEATING PEAK DEMAND' invalid Variable or Meter Name 'HEATING:DISTRICTHEATING'",
    "   ** Warning ** In Output:Table:Monthly 'BUILDING ENERGY PERFORMANCE - DISTRICT HEATING PEAK DEMAND' invalid Variable or Meter Name 'COOLING:DISTRICTHEATING'",
    "   ** Warning ** In Output:Table:Monthly 'BUILDING ENERGY PERFORMANCE - DISTRICT HEATING PEAK DEMAND' invalid Variable or Meter Name 'HEATREJECTION:DISTRICTHEATING'",
    "   ** Warning ** In Output:Table:Monthly 'BUILDING ENERGY PERFORMANCE - DISTRICT HEATING PEAK DEMAND' invalid Variable or Meter Name 'HUMIDIFIER:DISTRICTHEATING'",
    "   ** Warning ** In Output:Table:Monthly 'BUILDING ENERGY PERFORMANCE - DISTRICT HEATING PEAK DEMAND' invalid Variable or Meter Name 'HEATRECOVERY:DISTRICTHEATING'",
    "   ** Warning ** In Output:Table:Monthly 'BUILDING ENERGY PERFORMANCE - DISTRICT HEATING PEAK DEMAND' invalid Variable or Meter Name 'WATERSYSTEMS:DISTRICTHEATING'",
    "   ** Warning ** In Output:Table:Monthly 'BUILDING ENERGY PERFORMANCE - DISTRICT HEATING PEAK DEMAND' invalid Variable or Meter Name 'COGENERATION:DISTRICTHEATING'",
    "   ** Warning ** In Output:Table:Monthly 'BUILDING ENERGY PERFORMANCE - DISTRICT COOLING PEAK DEMAND' invalid Variable or Meter Name 'DISTRICTCOOLING:FACILITY'",
    "   ** Warning ** In Output:Table:Monthly 'BUILDING ENERGY PERFORMANCE - DISTRICT COOLING PEAK DEMAND' invalid Variable or Meter Name 'INTERIORLIGHTS:DISTRICTCOOLING'",
    "   ** Warning ** In Output:Table:Monthly 'BUILDING ENERGY PERFORMANCE - DISTRICT COOLING PEAK DEMAND' invalid Variable or Meter Name 'EXTERIORLIGHTS:DISTRICTCOOLING'",
    "   ** Warning ** In Output:Table:Monthly 'BUILDING ENERGY PERFORMANCE - DISTRICT COOLING PEAK DEMAND' invalid Variable or Meter Name 'INTERIOREQUIPMENT:DISTRICTCOOLING'",
    "   ** Warning ** In Output:Table:Monthly 'BUILDING ENERGY PERFORMANCE - DISTRICT COOLING PEAK DEMAND' invalid Variable or Meter Name 'EXTERIOREQUIPMENT:DISTRICTCOOLING'",
    "   ** Warning ** In Output:Table:Monthly 'BUILDING ENERGY PERFORMANCE - DISTRICT COOLING PEAK DEMAND' invalid Variable or Meter Name 'FANS:DISTRICTCOOLING'",
    "   ** Warning ** In Output:Table:Monthly 'BUILDING ENERGY PERFORMANCE - DISTRICT COOLING PEAK DEMAND' invalid Variable or Meter Name 'PUMPS:DISTRICTCOOLING'",
    "   ** Warning ** In Output:Table:Monthly 'BUILDING ENERGY PERFORMANCE - DISTRICT COOLING PEAK DEMAND' invalid Variable or Meter Name 'HEATING:DISTRICTCOOLING'",
    "   ** Warning ** In Output:Table:Monthly 'BUILDING ENERGY PERFORMANCE - DISTRICT COOLING PEAK DEMAND' invalid Variable or Meter Name 'COOLING:DISTRICTCOOLING'",
    "   ** Warning ** In Output:Table:Monthly 'BUILDING ENERGY PERFORMANCE - DISTRICT COOLING PEAK DEMAND' invalid Variable or Meter Name 'HEATREJECTION:DISTRICTCOOLING'",
    "   ** Warning ** In Output:Table:Monthly 'BUILDING ENERGY PERFORMANCE - DISTRICT COOLING PEAK DEMAND' invalid Variable or Meter Name 'HUMIDIFIER:DISTRICTCOOLING'",
    "   ** Warning ** In Output:Table:Monthly 'BUILDING ENERGY PERFORMANCE - DISTRICT COOLING PEAK DEMAND' invalid Variable or Meter Name 'HEATRECOVERY:DISTRICTCOOLING'",
    "   ** Warning ** In Output:Table:Monthly 'BUILDING ENERGY PERFORMANCE - DISTRICT COOLING PEAK DEMAND' invalid Variable or Meter Name 'WATERSYSTEMS:DISTRICTCOOLING'",
    "   ** Warning ** In Output:Table:Monthly 'BUILDING ENERGY PERFORMANCE - DISTRICT COOLING PEAK DEMAND' invalid Variable or Meter Name 'COGENERATION:DISTRICTCOOLING'",
    "   ** Warning ** Processing Monthly Tabular Reports: Variable names not valid for this simulation",
    "   **   ~~~   ** ...use Output:Diagnostics,DisplayExtraWarnings; to show more details on individual variables.",
    "   ** Warning ** SimHVAC: Maximum iterations (20) exceeded for all HVAC loops, at SACRAMENTO-EXECUTIVE_724830_CZ2010, 01/01 10:00 - 10:08",
    "   **   ~~~   ** The solution for one or more of the Air Loop HVAC systems did not appear to converge",
    "   **   ~~~   ** The solution for one or more plant systems did not appear to converge",
    "   **   ~~~   ** ...use Output:Diagnostics,DisplayExtraWarnings; to show more details on each max iteration exceeded.",
    "   ** Warning ** SimHVAC: Maximum iterations (20) exceeded for all HVAC loops, at SACRAMENTO-EXECUTIVE_724830_CZ2010, 01/02 06:14 - 06:15",
    "   **   ~~~   ** The solution for one or more plant systems did not appear to converge",
    "   ** Warning ** SimHVAC: Maximum iterations (20) exceeded for all HVAC loops, at SACRAMENTO-EXECUTIVE_724830_CZ2010, 01/03 06:12 - 06:13",
    "   **   ~~~   ** The solution for one or more plant systems did not appear to converge",
    "   ** Warning ** SimHVAC: Maximum iterations (20) exceeded for all HVAC loops, at SACRAMENTO-EXECUTIVE_724830_CZ2010, 01/05 07:00 - 07:15",
    "   **   ~~~   ** The solution for one or more of the Air Loop HVAC systems did not appear to converge",
    "   **   ~~~   ** The solution for one or more plant systems did not appear to converge",
    "   ** Warning ** SimHVAC: Maximum iterations (20) exceeded for all HVAC loops, at SACRAMENTO-EXECUTIVE_724830_CZ2010, 01/06 06:14 - 06:15",
    "   **   ~~~   ** The solution for one or more plant systems did not appear to converge",
    "   ** Warning ** SimHVAC: Maximum iterations (20) exceeded for all HVAC loops, at SACRAMENTO-EXECUTIVE_724830_CZ2010, 01/06 07:08 - 07:15",
    "   **   ~~~   ** The solution for one or more of the Air Loop HVAC systems did not appear to converge",
    "   **   ~~~   ** The solution for one or more plant systems did not appear to converge",
    "   ** Warning ** SimHVAC: Maximum iterations (20) exceeded for all HVAC loops, at SACRAMENTO-EXECUTIVE_724830_CZ2010, 01/06 08:00 - 08:15",
    "   **   ~~~   ** The solution for one or more of the Air Loop HVAC systems did not appear to converge",
    "   **   ~~~   ** The solution for one or more plant systems did not appear to converge",
    "   ** Warning ** SimHVAC: Maximum iterations (20) exceeded for all HVAC loops, at SACRAMENTO-EXECUTIVE_724830_CZ2010, 01/06 08:08 - 08:15",
    "   **   ~~~   ** The solution for one or more of the Air Loop HVAC systems did not appear to converge",
    "   **   ~~~   ** The solution for one or more plant systems did not appear to converge",
    "   ** Warning ** SimHVAC: Maximum iterations (20) exceeded for all HVAC loops, at SACRAMENTO-EXECUTIVE_724830_CZ2010, 01/07 07:08 - 07:15",
    "   **   ~~~   ** The solution for one or more of the Air Loop HVAC systems did not appear to converge",
    "   **   ~~~   ** The solution for one or more plant systems did not appear to converge",
    "   ** Warning ** SimHVAC: Maximum iterations (20) exceeded for all HVAC loops, at SACRAMENTO-EXECUTIVE_724830_CZ2010, 01/07 07:15 - 07:22",
    "   **   ~~~   ** The solution for one or more of the Air Loop HVAC systems did not appear to converge",
    "   **   ~~~   ** The solution for one or more plant systems did not appear to converge",
    "   ** Warning ** SimHVAC: Maximum iterations (20) exceeded for all HVAC loops, at SACRAMENTO-EXECUTIVE_724830_CZ2010, 01/07 08:15 - 08:30",
    "   **   ~~~   ** The solution for one or more of the Air Loop HVAC systems did not appear to converge",
    "   **   ~~~   ** The solution for one or more plant systems did not appear to converge",
    "   ** Warning ** SimHVAC: Maximum iterations (20) exceeded for all HVAC loops, at SACRAMENTO-EXECUTIVE_724830_CZ2010, 01/08 07:15 - 07:30",
    "   **   ~~~   ** The solution for one or more of the Air Loop HVAC systems did not appear to converge",
    "   **   ~~~   ** The solution for one or more plant systems did not appear to converge",
    "   ** Warning ** SimHVAC: Maximum iterations (20) exceeded for all HVAC loops, at SACRAMENTO-EXECUTIVE_724830_CZ2010, 01/08 07:15 - 07:22",
    "   **   ~~~   ** The solution for one or more of the Air Loop HVAC systems did not appear to converge",
    "   **   ~~~   ** The solution for one or more plant systems did not appear to converge",
    "   ** Warning ** SimHVAC: Maximum iterations (20) exceeded for all HVAC loops, at SACRAMENTO-EXECUTIVE_724830_CZ2010, 01/08 07:23 - 07:30",
    "   **   ~~~   ** The solution for one or more of the Air Loop HVAC systems did not appear to converge",
    "   **   ~~~   ** The solution for one or more plant systems did not appear to converge",
    "   ** Warning ** CalcDoe2DXCoil: Coil:Cooling:DX:SingleSpeed=\"BASESYS5 COILCLG\" - Air volume flow rate per watt of rated total cooling capacity is out of range at 1.079E-005 m3/s/W.",
    "   **   ~~~   **  Environment=SACRAMENTO-EXECUTIVE_724830_CZ2010, at Simulation time=03/10 10:45 - 11:00",
    "   **   ~~~   ** Expected range for VolumeFlowPerRatedTotalCapacity=[2.684E-005--6.713E-005]",
    "   **   ~~~   ** Possible causes include inconsistent air flow rates in system components,",
    "   **   ~~~   ** or variable air volume [VAV] system using incorrect coil type.",
    "   ** Warning ** CalcDoe2DXCoil: Coil:Cooling:DX:SingleSpeed \"BASESYS5 COILCLG\" - Full load outlet air dry-bulb temperature < 2C. This indicates the possibility of coil frost/freeze. Outlet temperature = -36.44 C.",
    "   **   ~~~   **  ...Occurrence info = SACRAMENTO-EXECUTIVE_724830_CZ2010, 03/10 10:45 - 10:52",
    "   **   ~~~   ** ... Possible reasons for low outlet air dry-bulb temperatures are: This DX coil",
    "   **   ~~~   **    1) may have a low inlet air dry-bulb temperature. Inlet air temperature = 15.600 C.",
    "   **   ~~~   **    2) may have a low air flow rate per watt of cooling capacity. Check inputs.",
    "   **   ~~~   **    3) is used as part of a HX assisted cooling coil which uses a high sensible effectiveness. Check inputs.",
    "   ** Warning ** The resource referenced by LifeCycleCost:UsePriceEscalation= \"U.S. AVG  COMMERCIAL-ELECTRICITY\" has no energy cost. ",
    "   **   ~~~   ** ... It is likely that the wrong resource is used. The resource should match the meter used in Utility:Tariff.",
    "   ** Warning ** The resource referenced by LifeCycleCost:UsePriceEscalation= \"U.S. AVG  COMMERCIAL-DISTILLATE OIL\" has no energy cost. ",
    "   **   ~~~   ** ... It is likely that the wrong resource is used. The resource should match the meter used in Utility:Tariff.",
    "   ** Warning ** The resource referenced by LifeCycleCost:UsePriceEscalation= \"U.S. AVG  COMMERCIAL-RESIDUAL OIL\" has no energy cost. ",
    "   **   ~~~   ** ... It is likely that the wrong resource is used. The resource should match the meter used in Utility:Tariff.",
    "   ** Warning ** The resource referenced by LifeCycleCost:UsePriceEscalation= \"U.S. AVG  COMMERCIAL-NATURAL GAS\" has no energy cost. ",
    "   **   ~~~   ** ... It is likely that the wrong resource is used. The resource should match the meter used in Utility:Tariff.",
    "   ** Warning ** The resource referenced by LifeCycleCost:UsePriceEscalation= \"U.S. AVG  COMMERCIAL-COAL\" has no energy cost. ",
    "   **   ~~~   ** ... It is likely that the wrong resource is used. The resource should match the meter used in Utility:Tariff.",
    "   ************* Simulation Error Summary *************",
    "   ************* There are 12 unused schedules in input.",
    "   ************* There are 12 unused week schedules in input.",
    "   ************* There are 26 unused day schedules in input.",
    "   ************* Use Output:Diagnostics,DisplayUnusedSchedules; to see them.",
    "   *************",
    "   ************* ===== Recurring Error Summary =====",
    "   ************* The following recurring error messages occurred.",
    "   *************",
    "   *************  ** Warning ** \"BACK_SPACE WATER USE EQUIPMENT\" - Target water temperature should be less than or equal to the hot water temperature error continues...",
    "   *************  **   ~~~   **   This error occurred 667665 total times;",
    "   *************  **   ~~~   **   during Warmup 0 times;",
    "   *************  **   ~~~   **   during Sizing 0 times.",
    "   *************  **   ~~~   **   Max=1.366541  Min=0.634427",
    "   *************",
    "   *************  ** Warning ** \"CORE_RETAIL WATER USE EQUIPMENT\" - Target water temperature should be less than or equal to the hot water temperature error continues...",
    "   *************  **   ~~~   **   This error occurred 667665 total times;",
    "   *************  **   ~~~   **   during Warmup 0 times;",
    "   *************  **   ~~~   **   during Sizing 0 times.",
    "   *************  **   ~~~   **   Max=1.366541  Min=0.634427",
    "   *************",
    "   *************  ** Warning ** \"FRONT_ENTRY WATER USE EQUIPMENT\" - Target water temperature should be less than or equal to the hot water temperature error continues...",
    "   *************  **   ~~~   **   This error occurred 667665 total times;",
    "   *************  **   ~~~   **   during Warmup 0 times;",
    "   *************  **   ~~~   **   during Sizing 0 times.",
    "   *************  **   ~~~   **   Max=1.366541  Min=0.634427",
    "   *************",
    "   *************  ** Warning ** \"FRONT_RETAIL WATER USE EQUIPMENT\" - Target water temperature should be less than or equal to the hot water temperature error continues...",
    "   *************  **   ~~~   **   This error occurred 667665 total times;",
    "   *************  **   ~~~   **   during Warmup 0 times;",
    "   *************  **   ~~~   **   during Sizing 0 times.",
    "   *************  **   ~~~   **   Max=1.366541  Min=0.634427",
    "   *************",
    "   *************  ** Warning ** \"POINT_OF_SALE WATER USE EQUIPMENT\" - Target water temperature should be less than or equal to the hot water temperature error continues...",
    "   *************  **   ~~~   **   This error occurred 667665 total times;",
    "   *************  **   ~~~   **   during Warmup 0 times;",
    "   *************  **   ~~~   **   during Sizing 0 times.",
    "   *************  **   ~~~   **   Max=1.366541  Min=0.634427",
    "   *************",
    "   *************  ** Warning ** SimHVAC: Exceeding Maximum iterations for all HVAC loops, during SACRAMENTO-EXECUTIVE_724830_CZ2010 continues",
    "   *************  **   ~~~   **   This error occurred 252 total times;",
    "   *************  **   ~~~   **   during Warmup 0 times;",
    "   *************  **   ~~~   **   during Sizing 0 times.",
    "   *************",
    "   *************  ** Warning ** CalcDoe2DXCoil: Coil:Cooling:DX:SingleSpeed=\"BASESYS5 COILCLG\" - Air volume flow rate per watt of rated total cooling capacity is out of range error continues...",
    "   *************  **   ~~~   **   This error occurred 136410 total times;",
    "   *************  **   ~~~   **   during Warmup 0 times;",
    "   *************  **   ~~~   **   during Sizing 0 times.",
    "   *************  **   ~~~   **   Max=2.683684E-005  Min=1.069925E-005",
    "   *************",
    "   *************  ** Warning ** CalcDoe2DXCoil: Coil:Cooling:DX:SingleSpeed=\"BASESYS5 COILCLG\" - Full load outlet temperature indicates a possibility of frost/freeze error continues. Outlet air temperature statistics follow:",
    "   *************  **   ~~~   **   This error occurred 10558 total times;",
    "   *************  **   ~~~   **   during Warmup 0 times;",
    "   *************  **   ~~~   **   during Sizing 0 times.",
    "   *************  **   ~~~   **   Max=1.989543  Min=-39.919565",
    "   *************",
    "   *************",
    "   ************* ===== Final Error Summary =====",
    "   ************* The following error categories occurred.  Consider correcting or noting.",
    "   ************* Nominally Unused Constructions",
    "   ************* ..The nominally unused constructions warning is provided to alert you to potential conditions that can cause",
    "   ************* ..extra time during simulation. Each construction is calculated by the algorithm indicated in the HeatBalanceAlgorithm",
    "   ************* ..object. You may remove the constructions indicated (when you use the DisplayExtraWarnings option).",
    "   *************",
    "   ************* EnergyPlus Warmup Error Summary. During Warmup: 0 Warning; 0 Severe Errors.",
    "   ************* EnergyPlus Sizing Error Summary. During Sizing: 24 Warning; 0 Severe Errors.",
    "   ************* EnergyPlus Completed Successfully-- 3485758 Warning; 0 Severe Errors; "
  ],
  "file_paths": [
    "/home/julien/Software/Others/OpenStudio-resources/testruns/050312_RetlMed_Alterations16.xml/generated_files",
    "./files",
    "./weather",
    "../../files",
    "../../weather",
    "./"
  ],
  "seed_file": "in.osm",
  "steps": [
    {
      "arguments": {
      },
      "measure_dir_name": "openstudio_results",
      "result": {
        "measure_class_name": "OpenStudioResults",
        "measure_display_name": "OpenStudio Results",
        "measure_name": "openstudio_results",
        "measure_taxonomy": "Reporting.QAQC",
        "measure_type": "ReportingMeasure",
        "measure_uid": "a25386cd-60e4-46bc-8b11-c755f379d916",
        "measure_version_id": "02ad7007-fe7b-4747-bd7a-29d697c4d91a",
        "measure_version_modified": "20180711T183039Z",
        "measure_xml_checksum": "557BF06F",
        "stderr": "",
        "stdout": "",
        "step_errors": [

        ],
        "step_final_condition": "Generated report with 19 sections to ./report.html.",
        "step_info": [

        ],
        "step_initial_condition": "Gathering data from EnergyPlus SQL file and OSM model.",
        "step_result": "Success",
        "step_values": [
          {
            "name": "building_summary_section",
            "value": true
          },
          {
            "name": "annual_overview_section",
            "value": true
          },
          {
            "name": "monthly_overview_section",
            "value": true
          },
          {
            "name": "utility_bills_rates_section",
            "value": true
          },
          {
            "name": "envelope_section_section",
            "value": true
          },
          {
            "name": "space_type_breakdown_section",
            "value": true
          },
          {
            "name": "space_type_details_section",
            "value": true
          },
          {
            "name": "interior_lighting_section",
            "value": true
          },
          {
            "name": "plug_loads_section",
            "value": true
          },
          {
            "name": "exterior_light_section",
            "value": true
          },
          {
            "name": "water_use_section",
            "value": true
          },
          {
            "name": "hvac_load_profile",
            "value": true
          },
          {
            "name": "zone_condition_section",
            "value": true
          },
          {
            "name": "zone_summary_section",
            "value": true
          },
          {
            "name": "zone_equipment_detail_section",
            "value": true
          },
          {
            "name": "air_loops_detail_section",
            "value": true
          },
          {
            "name": "plant_loops_detail_section",
            "value": true
          },
          {
            "name": "outdoor_air_section",
            "value": true
          },
          {
            "name": "cost_summary_section",
            "value": true
          },
          {
            "name": "source_energy_section",
            "value": true
          },
          {
            "name": "schedules_overview_section",
            "value": true
          },
          {
            "name": "standards_gem_version",
            "value": "0.3.0"
          },
          {
            "name": "workflow_gem_version",
            "value": "2.3.1"
          },
          {
            "display_name": "Retail Standalone",
            "name": "building_name",
            "value": "n/a"
          },
          {
            "name": "total_site_energy",
            "units": "kBtu",
            "value": 1484253.18
          },
          {
            "name": "net_site_energy",
            "units": "kBtu",
            "value": 1484253.18
          },
          {
            "name": "total_building_area",
            "units": "ft^2",
            "value": 24692.3
          },
          {
            "name": "total_site_eui",
            "units": "kBtu/ft^2",
            "value": 60.11
          },
          {
            "name": "eui",
            "units": "kBtu/ft^2",
            "value": 60.11
          },
          {
            "name": "unmet_hours_during_heating",
            "units": "hr",
            "value": 155.0
          },
          {
            "name": "unmet_hours_during_cooling",
            "units": "hr",
            "value": 0.0
          },
          {
            "name": "unmet_hours_during_occupied_heating",
            "units": "hr",
            "value": 5.0
          },
          {
            "name": "unmet_hours_during_occupied_cooling",
            "units": "hr",
            "value": 0.0
          },
          {
            "name": "unmet_hours_tolerance_heating",
            "units": "F",
            "value": 1.01
          },
          {
            "name": "unmet_hours_tolerance_cooling",
            "units": "F",
            "value": 1.01
          },
          {
            "name": "electricity_heating_ip",
            "units": "kWh",
            "value": 41.96
          },
          {
            "name": "electricity_cooling_ip",
            "units": "kWh",
            "value": 45805.97
          },
          {
            "name": "electricity_interior_lighting_ip",
            "units": "kWh",
            "value": 87696.39
          },
          {
            "name": "electricity_exterior_lighting_ip",
            "units": "kWh",
            "value": 0.0
          },
          {
            "name": "electricity_interior_equipment_ip",
            "units": "kWh",
            "value": 77659.36
          },
          {
            "name": "electricity_exterior_equipment_ip",
            "units": "kWh",
            "value": 0.0
          },
          {
            "name": "electricity_fans_ip",
            "units": "kWh",
            "value": 19608.56
          },
          {
            "name": "electricity_pumps_ip",
            "units": "kWh",
            "value": 1849.97
          },
          {
            "name": "electricity_heat_rejection_ip",
            "units": "kWh",
            "value": 0.0
          },
          {
            "name": "electricity_humidification_ip",
            "units": "kWh",
            "value": 0.0
          },
          {
            "name": "electricity_heat_recovery_ip",
            "units": "kWh",
            "value": 0.0
          },
          {
            "name": "electricity_water_systems_ip",
            "units": "kWh",
            "value": 0.0
          },
          {
            "name": "electricity_refrigeration_ip",
            "units": "kWh",
            "value": 0.0
          },
          {
            "name": "electricity_generators_ip",
            "units": "kWh",
            "value": 0.0
          },
          {
            "name": "electricity_ip",
            "units": "kWh",
            "value": 232662.21
          },
          {
            "name": "natural_gas_heating_ip",
            "units": "MBtu",
            "value": 628.26
          },
          {
            "name": "natural_gas_cooling_ip",
            "units": "MBtu",
            "value": 0.0
          },
          {
            "name": "natural_gas_interior_lighting_ip",
            "units": "MBtu",
            "value": 0.0
          },
          {
            "name": "natural_gas_exterior_lighting_ip",
            "units": "MBtu",
            "value": 0.0
          },
          {
            "name": "natural_gas_interior_equipment_ip",
            "units": "MBtu",
            "value": 0.0
          },
          {
            "name": "natural_gas_exterior_equipment_ip",
            "units": "MBtu",
            "value": 0.0
          },
          {
            "name": "natural_gas_fans_ip",
            "units": "MBtu",
            "value": 0.0
          },
          {
            "name": "natural_gas_pumps_ip",
            "units": "MBtu",
            "value": 0.0
          },
          {
            "name": "natural_gas_heat_rejection_ip",
            "units": "MBtu",
            "value": 0.0
          },
          {
            "name": "natural_gas_humidification_ip",
            "units": "MBtu",
            "value": 0.0
          },
          {
            "name": "natural_gas_heat_recovery_ip",
            "units": "MBtu",
            "value": 0.0
          },
          {
            "name": "natural_gas_water_systems_ip",
            "units": "MBtu",
            "value": 62.12
          },
          {
            "name": "natural_gas_refrigeration_ip",
            "units": "MBtu",
            "value": 0.0
          },
          {
            "name": "natural_gas_generators_ip",
            "units": "MBtu",
            "value": 0.0
          },
          {
            "name": "natural_gas_ip",
            "units": "MBtu",
            "value": 690.38
          },
          {
            "name": "gasoline_heating_ip",
            "units": "MBtu",
            "value": 0.0
          },
          {
            "name": "gasoline_cooling_ip",
            "units": "MBtu",
            "value": 0.0
          },
          {
            "name": "gasoline_interior_lighting_ip",
            "units": "MBtu",
            "value": 0.0
          },
          {
            "name": "gasoline_exterior_lighting_ip",
            "units": "MBtu",
            "value": 0.0
          },
          {
            "name": "gasoline_interior_equipment_ip",
            "units": "MBtu",
            "value": 0.0
          },
          {
            "name": "gasoline_exterior_equipment_ip",
            "units": "MBtu",
            "value": 0.0
          },
          {
            "name": "gasoline_fans_ip",
            "units": "MBtu",
            "value": 0.0
          },
          {
            "name": "gasoline_pumps_ip",
            "units": "MBtu",
            "value": 0.0
          },
          {
            "name": "gasoline_heat_rejection_ip",
            "units": "MBtu",
            "value": 0.0
          },
          {
            "name": "gasoline_humidification_ip",
            "units": "MBtu",
            "value": 0.0
          },
          {
            "name": "gasoline_heat_recovery_ip",
            "units": "MBtu",
            "value": 0.0
          },
          {
            "name": "gasoline_water_systems_ip",
            "units": "MBtu",
            "value": 0.0
          },
          {
            "name": "gasoline_refrigeration_ip",
            "units": "MBtu",
            "value": 0.0
          },
          {
            "name": "gasoline_generators_ip",
            "units": "MBtu",
            "value": 0.0
          },
          {
            "name": "gasoline_ip",
            "units": "MBtu",
            "value": 0.0
          },
          {
            "name": "diesel_heating_ip",
            "units": "MBtu",
            "value": 0.0
          },
          {
            "name": "diesel_cooling_ip",
            "units": "MBtu",
            "value": 0.0
          },
          {
            "name": "diesel_interior_lighting_ip",
            "units": "MBtu",
            "value": 0.0
          },
          {
            "name": "diesel_exterior_lighting_ip",
            "units": "MBtu",
            "value": 0.0
          },
          {
            "name": "diesel_interior_equipment_ip",
            "units": "MBtu",
            "value": 0.0
          },
          {
            "name": "diesel_exterior_equipment_ip",
            "units": "MBtu",
            "value": 0.0
          },
          {
            "name": "diesel_fans_ip",
            "units": "MBtu",
            "value": 0.0
          },
          {
            "name": "diesel_pumps_ip",
            "units": "MBtu",
            "value": 0.0
          },
          {
            "name": "diesel_heat_rejection_ip",
            "units": "MBtu",
            "value": 0.0
          },
          {
            "name": "diesel_humidification_ip",
            "units": "MBtu",
            "value": 0.0
          },
          {
            "name": "diesel_heat_recovery_ip",
            "units": "MBtu",
            "value": 0.0
          },
          {
            "name": "diesel_water_systems_ip",
            "units": "MBtu",
            "value": 0.0
          },
          {
            "name": "diesel_refrigeration_ip",
            "units": "MBtu",
            "value": 0.0
          },
          {
            "name": "diesel_generators_ip",
            "units": "MBtu",
            "value": 0.0
          },
          {
            "name": "diesel_ip",
            "units": "MBtu",
            "value": 0.0
          },
          {
            "name": "coal_heating_ip",
            "units": "MBtu",
            "value": 0.0
          },
          {
            "name": "coal_cooling_ip",
            "units": "MBtu",
            "value": 0.0
          },
          {
            "name": "coal_interior_lighting_ip",
            "units": "MBtu",
            "value": 0.0
          },
          {
            "name": "coal_exterior_lighting_ip",
            "units": "MBtu",
            "value": 0.0
          },
          {
            "name": "coal_interior_equipment_ip",
            "units": "MBtu",
            "value": 0.0
          },
          {
            "name": "coal_exterior_equipment_ip",
            "units": "MBtu",
            "value": 0.0
          },
          {
            "name": "coal_fans_ip",
            "units": "MBtu",
            "value": 0.0
          },
          {
            "name": "coal_pumps_ip",
            "units": "MBtu",
            "value": 0.0
          },
          {
            "name": "coal_heat_rejection_ip",
            "units": "MBtu",
            "value": 0.0
          },
          {
            "name": "coal_humidification_ip",
            "units": "MBtu",
            "value": 0.0
          },
          {
            "name": "coal_heat_recovery_ip",
            "units": "MBtu",
            "value": 0.0
          },
          {
            "name": "coal_water_systems_ip",
            "units": "MBtu",
            "value": 0.0
          },
          {
            "name": "coal_refrigeration_ip",
            "units": "MBtu",
            "value": 0.0
          },
          {
            "name": "coal_generators_ip",
            "units": "MBtu",
            "value": 0.0
          },
          {
            "name": "coal_ip",
            "units": "MBtu",
            "value": 0.0
          },
          {
            "name": "fuel_oil_no_1_heating_ip",
            "units": "MBtu",
            "value": 0.0
          },
          {
            "name": "fuel_oil_no_1_cooling_ip",
            "units": "MBtu",
            "value": 0.0
          },
          {
            "name": "fuel_oil_no_1_interior_lighting_ip",
            "units": "MBtu",
            "value": 0.0
          },
          {
            "name": "fuel_oil_no_1_exterior_lighting_ip",
            "units": "MBtu",
            "value": 0.0
          },
          {
            "name": "fuel_oil_no_1_interior_equipment_ip",
            "units": "MBtu",
            "value": 0.0
          },
          {
            "name": "fuel_oil_no_1_exterior_equipment_ip",
            "units": "MBtu",
            "value": 0.0
          },
          {
            "name": "fuel_oil_no_1_fans_ip",
            "units": "MBtu",
            "value": 0.0
          },
          {
            "name": "fuel_oil_no_1_pumps_ip",
            "units": "MBtu",
            "value": 0.0
          },
          {
            "name": "fuel_oil_no_1_heat_rejection_ip",
            "units": "MBtu",
            "value": 0.0
          },
          {
            "name": "fuel_oil_no_1_humidification_ip",
            "units": "MBtu",
            "value": 0.0
          },
          {
            "name": "fuel_oil_no_1_heat_recovery_ip",
            "units": "MBtu",
            "value": 0.0
          },
          {
            "name": "fuel_oil_no_1_water_systems_ip",
            "units": "MBtu",
            "value": 0.0
          },
          {
            "name": "fuel_oil_no_1_refrigeration_ip",
            "units": "MBtu",
            "value": 0.0
          },
          {
            "name": "fuel_oil_no_1_generators_ip",
            "units": "MBtu",
            "value": 0.0
          },
          {
            "name": "fuel_oil_no_1_ip",
            "units": "MBtu",
            "value": 0.0
          },
          {
            "name": "fuel_oil_no_2_heating_ip",
            "units": "MBtu",
            "value": 0.0
          },
          {
            "name": "fuel_oil_no_2_cooling_ip",
            "units": "MBtu",
            "value": 0.0
          },
          {
            "name": "fuel_oil_no_2_interior_lighting_ip",
            "units": "MBtu",
            "value": 0.0
          },
          {
            "name": "fuel_oil_no_2_exterior_lighting_ip",
            "units": "MBtu",
            "value": 0.0
          },
          {
            "name": "fuel_oil_no_2_interior_equipment_ip",
            "units": "MBtu",
            "value": 0.0
          },
          {
            "name": "fuel_oil_no_2_exterior_equipment_ip",
            "units": "MBtu",
            "value": 0.0
          },
          {
            "name": "fuel_oil_no_2_fans_ip",
            "units": "MBtu",
            "value": 0.0
          },
          {
            "name": "fuel_oil_no_2_pumps_ip",
            "units": "MBtu",
            "value": 0.0
          },
          {
            "name": "fuel_oil_no_2_heat_rejection_ip",
            "units": "MBtu",
            "value": 0.0
          },
          {
            "name": "fuel_oil_no_2_humidification_ip",
            "units": "MBtu",
            "value": 0.0
          },
          {
            "name": "fuel_oil_no_2_heat_recovery_ip",
            "units": "MBtu",
            "value": 0.0
          },
          {
            "name": "fuel_oil_no_2_water_systems_ip",
            "units": "MBtu",
            "value": 0.0
          },
          {
            "name": "fuel_oil_no_2_refrigeration_ip",
            "units": "MBtu",
            "value": 0.0
          },
          {
            "name": "fuel_oil_no_2_generators_ip",
            "units": "MBtu",
            "value": 0.0
          },
          {
            "name": "fuel_oil_no_2_ip",
            "units": "MBtu",
            "value": 0.0
          },
          {
            "name": "propane_heating_ip",
            "units": "MBtu",
            "value": 0.0
          },
          {
            "name": "propane_cooling_ip",
            "units": "MBtu",
            "value": 0.0
          },
          {
            "name": "propane_interior_lighting_ip",
            "units": "MBtu",
            "value": 0.0
          },
          {
            "name": "propane_exterior_lighting_ip",
            "units": "MBtu",
            "value": 0.0
          },
          {
            "name": "propane_interior_equipment_ip",
            "units": "MBtu",
            "value": 0.0
          },
          {
            "name": "propane_exterior_equipment_ip",
            "units": "MBtu",
            "value": 0.0
          },
          {
            "name": "propane_fans_ip",
            "units": "MBtu",
            "value": 0.0
          },
          {
            "name": "propane_pumps_ip",
            "units": "MBtu",
            "value": 0.0
          },
          {
            "name": "propane_heat_rejection_ip",
            "units": "MBtu",
            "value": 0.0
          },
          {
            "name": "propane_humidification_ip",
            "units": "MBtu",
            "value": 0.0
          },
          {
            "name": "propane_heat_recovery_ip",
            "units": "MBtu",
            "value": 0.0
          },
          {
            "name": "propane_water_systems_ip",
            "units": "MBtu",
            "value": 0.0
          },
          {
            "name": "propane_refrigeration_ip",
            "units": "MBtu",
            "value": 0.0
          },
          {
            "name": "propane_generators_ip",
            "units": "MBtu",
            "value": 0.0
          },
          {
            "name": "propane_ip",
            "units": "MBtu",
            "value": 0.0
          },
          {
            "name": "other_fuel_1_heating_ip",
            "units": "MBtu",
            "value": 0.0
          },
          {
            "name": "other_fuel_1_cooling_ip",
            "units": "MBtu",
            "value": 0.0
          },
          {
            "name": "other_fuel_1_interior_lighting_ip",
            "units": "MBtu",
            "value": 0.0
          },
          {
            "name": "other_fuel_1_exterior_lighting_ip",
            "units": "MBtu",
            "value": 0.0
          },
          {
            "name": "other_fuel_1_interior_equipment_ip",
            "units": "MBtu",
            "value": 0.0
          },
          {
            "name": "other_fuel_1_exterior_equipment_ip",
            "units": "MBtu",
            "value": 0.0
          },
          {
            "name": "other_fuel_1_fans_ip",
            "units": "MBtu",
            "value": 0.0
          },
          {
            "name": "other_fuel_1_pumps_ip",
            "units": "MBtu",
            "value": 0.0
          },
          {
            "name": "other_fuel_1_heat_rejection_ip",
            "units": "MBtu",
            "value": 0.0
          },
          {
            "name": "other_fuel_1_humidification_ip",
            "units": "MBtu",
            "value": 0.0
          },
          {
            "name": "other_fuel_1_heat_recovery_ip",
            "units": "MBtu",
            "value": 0.0
          },
          {
            "name": "other_fuel_1_water_systems_ip",
            "units": "MBtu",
            "value": 0.0
          },
          {
            "name": "other_fuel_1_refrigeration_ip",
            "units": "MBtu",
            "value": 0.0
          },
          {
            "name": "other_fuel_1_generators_ip",
            "units": "MBtu",
            "value": 0.0
          },
          {
            "name": "other_fuel_1_ip",
            "units": "MBtu",
            "value": 0.0
          },
          {
            "name": "other_fuel_2_heating_ip",
            "units": "MBtu",
            "value": 0.0
          },
          {
            "name": "other_fuel_2_cooling_ip",
            "units": "MBtu",
            "value": 0.0
          },
          {
            "name": "other_fuel_2_interior_lighting_ip",
            "units": "MBtu",
            "value": 0.0
          },
          {
            "name": "other_fuel_2_exterior_lighting_ip",
            "units": "MBtu",
            "value": 0.0
          },
          {
            "name": "other_fuel_2_interior_equipment_ip",
            "units": "MBtu",
            "value": 0.0
          },
          {
            "name": "other_fuel_2_exterior_equipment_ip",
            "units": "MBtu",
            "value": 0.0
          },
          {
            "name": "other_fuel_2_fans_ip",
            "units": "MBtu",
            "value": 0.0
          },
          {
            "name": "other_fuel_2_pumps_ip",
            "units": "MBtu",
            "value": 0.0
          },
          {
            "name": "other_fuel_2_heat_rejection_ip",
            "units": "MBtu",
            "value": 0.0
          },
          {
            "name": "other_fuel_2_humidification_ip",
            "units": "MBtu",
            "value": 0.0
          },
          {
            "name": "other_fuel_2_heat_recovery_ip",
            "units": "MBtu",
            "value": 0.0
          },
          {
            "name": "other_fuel_2_water_systems_ip",
            "units": "MBtu",
            "value": 0.0
          },
          {
            "name": "other_fuel_2_refrigeration_ip",
            "units": "MBtu",
            "value": 0.0
          },
          {
            "name": "other_fuel_2_generators_ip",
            "units": "MBtu",
            "value": 0.0
          },
          {
            "name": "other_fuel_2_ip",
            "units": "MBtu",
            "value": 0.0
          },
          {
            "name": "district_cooling_heating_ip",
            "units": "MBtu",
            "value": 0.0
          },
          {
            "name": "district_cooling_cooling_ip",
            "units": "MBtu",
            "value": 0.0
          },
          {
            "name": "district_cooling_interior_lighting_ip",
            "units": "MBtu",
            "value": 0.0
          },
          {
            "name": "district_cooling_exterior_lighting_ip",
            "units": "MBtu",
            "value": 0.0
          },
          {
            "name": "district_cooling_interior_equipment_ip",
            "units": "MBtu",
            "value": 0.0
          },
          {
            "name": "district_cooling_exterior_equipment_ip",
            "units": "MBtu",
            "value": 0.0
          },
          {
            "name": "district_cooling_fans_ip",
            "units": "MBtu",
            "value": 0.0
          },
          {
            "name": "district_cooling_pumps_ip",
            "units": "MBtu",
            "value": 0.0
          },
          {
            "name": "district_cooling_heat_rejection_ip",
            "units": "MBtu",
            "value": 0.0
          },
          {
            "name": "district_cooling_humidification_ip",
            "units": "MBtu",
            "value": 0.0
          },
          {
            "name": "district_cooling_heat_recovery_ip",
            "units": "MBtu",
            "value": 0.0
          },
          {
            "name": "district_cooling_water_systems_ip",
            "units": "MBtu",
            "value": 0.0
          },
          {
            "name": "district_cooling_refrigeration_ip",
            "units": "MBtu",
            "value": 0.0
          },
          {
            "name": "district_cooling_generators_ip",
            "units": "MBtu",
            "value": 0.0
          },
          {
            "name": "district_cooling_ip",
            "units": "MBtu",
            "value": 0.0
          },
          {
            "name": "district_heating_heating_ip",
            "units": "MBtu",
            "value": 0.0
          },
          {
            "name": "district_heating_cooling_ip",
            "units": "MBtu",
            "value": 0.0
          },
          {
            "name": "district_heating_interior_lighting_ip",
            "units": "MBtu",
            "value": 0.0
          },
          {
            "name": "district_heating_exterior_lighting_ip",
            "units": "MBtu",
            "value": 0.0
          },
          {
            "name": "district_heating_interior_equipment_ip",
            "units": "MBtu",
            "value": 0.0
          },
          {
            "name": "district_heating_exterior_equipment_ip",
            "units": "MBtu",
            "value": 0.0
          },
          {
            "name": "district_heating_fans_ip",
            "units": "MBtu",
            "value": 0.0
          },
          {
            "name": "district_heating_pumps_ip",
            "units": "MBtu",
            "value": 0.0
          },
          {
            "name": "district_heating_heat_rejection_ip",
            "units": "MBtu",
            "value": 0.0
          },
          {
            "name": "district_heating_humidification_ip",
            "units": "MBtu",
            "value": 0.0
          },
          {
            "name": "district_heating_heat_recovery_ip",
            "units": "MBtu",
            "value": 0.0
          },
          {
            "name": "district_heating_water_systems_ip",
            "units": "MBtu",
            "value": 0.0
          },
          {
            "name": "district_heating_refrigeration_ip",
            "units": "MBtu",
            "value": 0.0
          },
          {
            "name": "district_heating_generators_ip",
            "units": "MBtu",
            "value": 0.0
          },
          {
            "name": "district_heating_ip",
            "units": "MBtu",
            "value": 0.0
          },
          {
            "name": "water_heating_ip",
            "units": "MBtu",
            "value": 0.0
          },
          {
            "name": "water_cooling_ip",
            "units": "MBtu",
            "value": 0.0
          },
          {
            "name": "water_interior_lighting_ip",
            "units": "MBtu",
            "value": 0.0
          },
          {
            "name": "water_exterior_lighting_ip",
            "units": "MBtu",
            "value": 0.0
          },
          {
            "name": "water_interior_equipment_ip",
            "units": "MBtu",
            "value": 0.0
          },
          {
            "name": "water_exterior_equipment_ip",
            "units": "MBtu",
            "value": 0.0
          },
          {
            "name": "water_fans_ip",
            "units": "MBtu",
            "value": 0.0
          },
          {
            "name": "water_pumps_ip",
            "units": "MBtu",
            "value": 0.0
          },
          {
            "name": "water_heat_rejection_ip",
            "units": "MBtu",
            "value": 0.0
          },
          {
            "name": "water_humidification_ip",
            "units": "MBtu",
            "value": 0.0
          },
          {
            "name": "water_heat_recovery_ip",
            "units": "MBtu",
            "value": 0.0
          },
          {
            "name": "water_water_systems_ip",
            "units": "MBtu",
            "value": 0.0
          },
          {
            "name": "water_refrigeration_ip",
            "units": "MBtu",
            "value": 0.0
          },
          {
            "name": "water_generators_ip",
            "units": "MBtu",
            "value": 0.0
          },
          {
            "name": "water_ip",
            "units": "MBtu",
            "value": 0.0
          },
          {
            "name": "base_cz_12_flat_nonres_wood_framing_and_other_roof_u_039",
            "units": "ft^2",
            "value": 20804.52
          },
          {
            "name": "existing_mass_wall",
            "units": "ft^2",
            "value": 9764.43
          },
          {
            "name": "modified_mass_wall",
            "units": "ft^2",
            "value": 1417.86
          },
          {
            "name": "modified_roof_cons",
            "units": "ft^2",
            "value": 3375.77
          },
          {
            "name": "new_wall_cons",
            "units": "ft^2",
            "value": 1239.68
          },
          {
            "name": "base_all_cz_skylt_gl_curb_mnt_u_58",
            "units": "ft^2",
            "value": 512.0
          },
          {
            "name": "new_window",
            "units": "ft^2",
            "value": 903.48
          },
          {
            "name": "gross_window_wall_ratio",
            "units": "%",
            "value": 7.13
          },
          {
            "name": "gross_window_wall_ratio_conditioned",
            "units": "%",
            "value": 6.6
          },
          {
            "name": "skylight_roof_ratio",
            "units": "%",
            "value": 2.07
          },
          {
            "name": "space_type_no_space_type",
            "units": "ft^2",
            "value": 24692.29
          },
          {
            "name": "exterior_lighting_total_power",
            "units": "W",
            "value": 0.0
          },
          {
            "name": "exterior_lighting_total_consumption",
            "units": "kWh",
            "value": 434991.67
          },
          {
            "name": "back_space_water_use_equipment",
            "units": "gal/min",
            "value": 0.01
          },
          {
            "name": "core_retail_water_use_equipment",
            "units": "gal/min",
            "value": 0.43
          },
          {
            "name": "front_entry_water_use_equipment",
            "units": "gal/min",
            "value": 0.01
          },
          {
            "name": "front_retail_water_use_equipment",
            "units": "gal/min",
            "value": 0.04
          },
          {
            "name": "point_of_sale_water_use_equipment",
            "units": "gal/min",
            "value": 0.04
          },
          {
            "name": "inflation_approach",
            "value": "Constant Dollar"
          },
          {
            "name": "analysis_length",
            "units": "yrs",
            "value": 25
          },
          {
            "name": "annual_peak_electric_demand",
            "units": "kW",
            "value": 99.4
          },
          {
            "name": "first_year_capital_cost",
            "units": "$",
            "value": 0.0
          },
          {
            "name": "annual_utility_cost",
            "units": "$",
            "value": 0.0
          },
          {
            "name": "total_lifecycle_cost",
            "units": "$",
            "value": 0.0
          }
        ],
        "step_warnings": [
          "Annual Overview section failed and was skipped because: Optional not initialized. Detail on error follows.",
          "/home/julien/Software/Others/OpenStudio-resources/measures/openstudio_results/resources/os_lib_reporting.rb:501:in `get'\n/home/julien/Software/Others/OpenStudio-resources/measures/openstudio_results/resources/os_lib_reporting.rb:501:in `block in output_data_end_use_table'\n/home/julien/Software/Others/OpenStudio-resources/measures/openstudio_results/resources/os_lib_reporting.rb:491:in `each'\n/home/julien/Software/Others/OpenStudio-resources/measures/openstudio_results/resources/os_lib_reporting.rb:491:in `output_data_end_use_table'\n/home/julien/Software/Others/OpenStudio-resources/measures/openstudio_results/resources/os_lib_reporting.rb:258:in `annual_overview_section'\n(eval):1:in `block in run'\n/home/julien/Software/Others/OpenStudio-resources/measures/openstudio_results/measure.rb:237:in `eval'\n/home/julien/Software/Others/OpenStudio-resources/measures/openstudio_results/measure.rb:237:in `block in run'\n/home/julien/Software/Others/OpenStudio-resources/measures/openstudio_results/measure.rb:233:in `each'\n/home/julien/Software/Others/OpenStudio-resources/measures/openstudio_results/measure.rb:233:in `run'\n:/ruby/2.7.0/gems/openstudio-workflow-2.3.1/lib/openstudio/workflow/util/measure.rb:521:in `apply_measure'\n:/ruby/2.7.0/gems/openstudio-workflow-2.3.1/lib/openstudio/workflow/util/measure.rb:114:in `block in apply_measures'\n:/ruby/2.7.0/gems/openstudio-workflow-2.3.1/lib/openstudio/workflow/util/measure.rb:67:in `each_index'\n:/ruby/2.7.0/gems/openstudio-workflow-2.3.1/lib/openstudio/workflow/util/measure.rb:67:in `apply_measures'\n:/ruby/2.7.0/gems/openstudio-workflow-2.3.1/lib/openstudio/workflow/jobs/run_reporting_measures.rb:117:in `perform'\n:/ruby/2.7.0/gems/openstudio-workflow-2.3.1/lib/openstudio/workflow/run.rb:291:in `step'\n:/ruby/2.7.0/gems/openstudio-workflow-2.3.1/lib/openstudio/workflow/run.rb:233:in `run'\n:/openstudio_cli.rb:1174:in `execute'\n:/openstudio_cli.rb:804:in `execute'\n:/openstudio_cli.rb:1973:in `<main>'\neval:188:in `eval'\neval:188:in `require_embedded_absolute'\neval:173:in `block in require_embedded'\neval:167:in `each'\neval:167:in `require_embedded'\neval:126:in `require'\neval:3:in `<main>'",
          "Air Loops Detail section failed and was skipped because: undefined method `minimumSetpointTemperature' for #<OpenStudio::Model::OptionalSetpointManagerWarmest:0x00005618725bf190>. Detail on error follows.",
          "/home/julien/Software/Others/OpenStudio-resources/measures/openstudio_results/resources/os_lib_reporting.rb:878:in `spm_logic'\n/home/julien/Software/Others/OpenStudio-resources/measures/openstudio_results/resources/os_lib_reporting.rb:906:in `air_loop_component_summary_logic'\n/home/julien/Software/Others/OpenStudio-resources/measures/openstudio_results/resources/os_lib_reporting.rb:991:in `block (2 levels) in air_loops_detail_section'\n/home/julien/Software/Others/OpenStudio-resources/measures/openstudio_results/resources/os_lib_reporting.rb:984:in `each'\n/home/julien/Software/Others/OpenStudio-resources/measures/openstudio_results/resources/os_lib_reporting.rb:984:in `block in air_loops_detail_section'\n/home/julien/Software/Others/OpenStudio-resources/measures/openstudio_results/resources/os_lib_reporting.rb:969:in `each'\n/home/julien/Software/Others/OpenStudio-resources/measures/openstudio_results/resources/os_lib_reporting.rb:969:in `air_loops_detail_section'\n(eval):1:in `block in run'\n/home/julien/Software/Others/OpenStudio-resources/measures/openstudio_results/measure.rb:237:in `eval'\n/home/julien/Software/Others/OpenStudio-resources/measures/openstudio_results/measure.rb:237:in `block in run'\n/home/julien/Software/Others/OpenStudio-resources/measures/openstudio_results/measure.rb:233:in `each'\n/home/julien/Software/Others/OpenStudio-resources/measures/openstudio_results/measure.rb:233:in `run'\n:/ruby/2.7.0/gems/openstudio-workflow-2.3.1/lib/openstudio/workflow/util/measure.rb:521:in `apply_measure'\n:/ruby/2.7.0/gems/openstudio-workflow-2.3.1/lib/openstudio/workflow/util/measure.rb:114:in `block in apply_measures'\n:/ruby/2.7.0/gems/openstudio-workflow-2.3.1/lib/openstudio/workflow/util/measure.rb:67:in `each_index'\n:/ruby/2.7.0/gems/openstudio-workflow-2.3.1/lib/openstudio/workflow/util/measure.rb:67:in `apply_measures'\n:/ruby/2.7.0/gems/openstudio-workflow-2.3.1/lib/openstudio/workflow/jobs/run_reporting_measures.rb:117:in `perform'\n:/ruby/2.7.0/gems/openstudio-workflow-2.3.1/lib/openstudio/workflow/run.rb:291:in `step'\n:/ruby/2.7.0/gems/openstudio-workflow-2.3.1/lib/openstudio/workflow/run.rb:233:in `run'\n:/openstudio_cli.rb:1174:in `execute'\n:/openstudio_cli.rb:804:in `execute'\n:/openstudio_cli.rb:1973:in `<main>'\neval:188:in `eval'\neval:188:in `require_embedded_absolute'\neval:173:in `block in require_embedded'\neval:167:in `each'\neval:167:in `require_embedded'\neval:126:in `require'\neval:3:in `<main>'"
        ]
      }
    }
  ],
  "weather_file": "../../weatherdata/USA_IL_Chicago-OHare.Intl.AP.725300_TMY3.epw"
}