{
  "completed_status": "Success",
  "current_step": 1,
  "eplusout_err": [
    "Program Version,EnergyPlus, Version 9.3.0-baff08990c, ",
    "   ************* Beginning Zone Sizing Calculations",
    "   ** Warning ** ProcessScheduleInput: Schedule:Day:Interval=\"{4424E98E-5CC6-4BC2-A212-C4AD27C4A985}\", Blank Schedule Type Limits Name input -- will not be validated.",
    "   ** Warning ** ProcessScheduleInput: Schedule:Day:Interval=\"{5E734272-79B0-4D43-806C-EA61B55A9E85}\", Blank Schedule Type Limits Name input -- will not be validated.",
    "   ** Warning ** ProcessScheduleInput: Schedule:Day:Interval=\"{61F0FB12-78C7-4AEE-B710-B488BDCEBA37}\", Blank Schedule Type Limits Name input -- will not be validated.",
    "   ** Warning ** ProcessScheduleInput: Schedule:Day:Interval=\"{66BE9BF6-9DF0-4848-8A5A-EB7E6263BC4B}\", Blank Schedule Type Limits Name input -- will not be validated.",
    "   ** Warning ** ProcessScheduleInput: Schedule:Day:Interval=\"{6AA8F0F1-4491-47F4-BA46-D79A8E7EE5FE}\", Blank Schedule Type Limits Name input -- will not be validated.",
    "   ** Warning ** ProcessScheduleInput: Schedule:Day:Interval=\"{868BFC9F-9886-431B-9387-B00B5FD5BD64}\", Blank Schedule Type Limits Name input -- will not be validated.",
    "   ** Warning ** ProcessScheduleInput: Schedule:Day:Interval=\"{9CD4D483-A04D-4B68-94C5-EE7A2BEE2963}\", Blank Schedule Type Limits Name input -- will not be validated.",
    "   ** Warning ** ProcessScheduleInput: Schedule:Day:Interval=\"{9DA01755-6820-42D6-BF1A-6796246B8258}\", Blank Schedule Type Limits Name input -- will not be validated.",
    "   ** Warning ** ProcessScheduleInput: Schedule:Day:Interval=\"{A063E942-79F5-4FBA-9FA8-ED2F382EC289}\", Blank Schedule Type Limits Name input -- will not be validated.",
    "   ** Warning ** ProcessScheduleInput: Schedule:Day:Interval=\"{A8850BED-C01F-46C6-B656-F222BE9DF9B7}\", Blank Schedule Type Limits Name input -- will not be validated.",
    "   ** Warning ** ProcessScheduleInput: Schedule:Day:Interval=\"{A99705E1-E614-4BA3-8B9B-2E96A38FE15A}\", Blank Schedule Type Limits Name input -- will not be validated.",
    "   ** Warning ** ProcessScheduleInput: Schedule:Day:Interval=\"{BCE60ED7-222E-440A-8939-AF30815C5146}\", Blank Schedule Type Limits Name input -- will not be validated.",
    "   ** Warning ** ProcessScheduleInput: Schedule:Day:Interval=\"{CA7E437A-BC70-45E7-9B2B-1E13F1A5EF47}\", Blank Schedule Type Limits Name input -- will not be validated.",
    "   ** Warning ** ProcessScheduleInput: Schedule:Day:Interval=\"{DD9B45EA-A402-49BE-BD84-55280E911091}\", Blank Schedule Type Limits Name input -- will not be validated.",
    "   ** Warning ** ProcessScheduleInput: Schedule:Day:Interval=\"{E3086EFC-B721-43C8-BFCA-4E042E4A87FA}\", Blank Schedule Type Limits Name input -- will not be validated.",
    "   ** Warning ** ProcessScheduleInput: Schedule:Day:Interval=\"{E31B19E7-9F2A-40F3-BF84-58D3AF5D2118}\", Blank Schedule Type Limits Name input -- will not be validated.",
    "   ** Warning ** ProcessScheduleInput: Schedule:Day:Interval=\"{F38EC272-D2E0-4729-8CCE-0F61AF1B8AED}\", Blank Schedule Type Limits Name input -- will not be validated.",
    "   ** Warning ** ProcessScheduleInput: Schedule:Day:Interval=\"{FF76DFD9-F137-49D2-8151-17A3D33E4C5C}\", Blank Schedule Type Limits Name input -- will not be validated.",
    "   ** Warning ** ProcessScheduleInput: Schedule:Year=\"AISLE_1 TARGET SHW TEMP\", Blank Schedule Type Limits Name input -- will not be validated.",
    "   ** Warning ** ProcessScheduleInput: Schedule:Year=\"AISLE_2 TARGET SHW TEMP\", Blank Schedule Type Limits Name input -- will not be validated.",
    "   ** Warning ** ProcessScheduleInput: Schedule:Year=\"AISLE_3 TARGET SHW TEMP\", Blank Schedule Type Limits Name input -- will not be validated.",
    "   ** Warning ** ProcessScheduleInput: Schedule:Year=\"AISLE_4 TARGET SHW TEMP\", Blank Schedule Type Limits Name input -- will not be validated.",
    "   ** Warning ** ProcessScheduleInput: Schedule:Year=\"BACK_OFFICE TARGET SHW TEMP\", Blank Schedule Type Limits Name input -- will not be validated.",
    "   ** Warning ** ProcessScheduleInput: Schedule:Year=\"BACK_SHELVING/REFRIG TARGET SHW TEMP\", Blank Schedule Type Limits Name input -- will not be validated.",
    "   ** Warning ** ProcessScheduleInput: Schedule:Year=\"BACK_STORAGE_1 TARGET SHW TEMP\", Blank Schedule Type Limits Name input -- will not be validated.",
    "   ** Warning ** ProcessScheduleInput: Schedule:Year=\"BACK_STORAGE_2 TARGET SHW TEMP\", Blank Schedule Type Limits Name input -- will not be validated.",
    "   ** Warning ** ProcessScheduleInput: Schedule:Year=\"MAIN_ENTRY TARGET SHW TEMP\", Blank Schedule Type Limits Name input -- will not be validated.",
    "   ** Warning ** ProcessScheduleInput: Schedule:Year=\"REGISTERS TARGET SHW TEMP\", Blank Schedule Type Limits Name input -- will not be validated.",
    "   ** Warning ** ProcessScheduleInput: Schedule:Year=\"SIDE_ENTRY_1 TARGET SHW TEMP\", Blank Schedule Type Limits Name input -- will not be validated.",
    "   ** Warning ** ProcessScheduleInput: Schedule:Year=\"SIDE_ENTRY_2 TARGET SHW TEMP\", Blank Schedule Type Limits Name input -- will not be validated.",
    "   ** Warning ** ProcessScheduleInput: Schedule:Year=\"SIDE_SHELVING_1 TARGET SHW TEMP\", Blank Schedule Type Limits Name input -- will not be validated.",
    "   ** Warning ** ProcessScheduleInput: Schedule:Year=\"SIDE_SHELVING_2 TARGET SHW TEMP\", Blank Schedule Type Limits Name input -- will not be validated.",
    "   ** Warning ** ProcessScheduleInput: Schedule:Year=\"SIDE_SHELVING_3 TARGET SHW TEMP\", Blank Schedule Type Limits Name input -- will not be validated.",
    "   ** Warning ** ProcessScheduleInput: Schedule:Year=\"SIDE_SHELVING_4 TARGET SHW TEMP\", Blank Schedule Type Limits Name input -- will not be validated.",
    "   ** Warning ** ProcessScheduleInput: Schedule:Year=\"SIDE_STORAGE_1 TARGET SHW TEMP\", Blank Schedule Type Limits Name input -- will not be validated.",
    "   ** Warning ** ProcessScheduleInput: Schedule:Year=\"SIDE_STORAGE_2 TARGET SHW TEMP\", Blank Schedule Type Limits Name input -- will not be validated.",
    "   ** Warning ** ProcessScheduleInput: Schedule:Constant=\"ALWAYS OFF DISCRETE\", Blank Schedule Type Limits Name input -- will not be validated.",
    "   ** Warning ** ProcessScheduleInput: Schedule:Constant=\"ALWAYS ON CONTINUOUS\", Blank Schedule Type Limits Name input -- will not be validated.",
    "   ** Warning ** Weather file location will be used rather than entered (IDF) Location object.",
    "   **   ~~~   ** ..Location object={F912B4C2-C369-4255-B241-D3E282232545}",
    "   **   ~~~   ** ..Weather File Location=Chicago Ohare Intl Ap IL USA TMY3 WMO#=725300",
    "   **   ~~~   ** ..due to location differences, Latitude difference=[3.40] degrees, Longitude difference=[33.57] degrees.",
    "   **   ~~~   ** ..Time Zone difference=[2.0] hour(s), Elevation difference=[4972.68] percent, [197.04] meters.",
    "   ** Warning ** GetDaylightingControls: Fraction of Zone controlled by the Daylighting reference points is < 1.0.",
    "   **   ~~~   ** ..discovered in \"Daylighting:Controls\" for Zone=\"BACK_SHELVING/REFRIG ZONE\", only 0.91 of the zone is controlled.",
    "   ** Warning ** GetDaylightingControls: Fraction of Zone controlled by the Daylighting reference points is < 1.0.",
    "   **   ~~~   ** ..discovered in \"Daylighting:Controls\" for Zone=\"BACK_STORAGE ZONE\", only 0.90 of the zone is controlled.",
    "   ** Warning ** GetDaylightingControls: Fraction of Zone controlled by the Daylighting reference points is < 1.0.",
    "   **   ~~~   ** ..discovered in \"Daylighting:Controls\" for Zone=\"MAIN_ENTRY ZONE\", only 1.00 of the zone is controlled.",
    "   ** Warning ** GetDaylightingControls: Fraction of Zone controlled by the Daylighting reference points is < 1.0.",
    "   **   ~~~   ** ..discovered in \"Daylighting:Controls\" for Zone=\"REGISTERS/AISLE ZONE\", only 0.86 of the zone is controlled.",
    "   ** Warning ** GetDaylightingControls: Fraction of Zone controlled by the Daylighting reference points is < 1.0.",
    "   **   ~~~   ** ..discovered in \"Daylighting:Controls\" for Zone=\"SIDE_ENTRY_1 ZONE\", only 1.00 of the zone is controlled.",
    "   ** Warning ** GetDaylightingControls: Fraction of Zone controlled by the Daylighting reference points is < 1.0.",
    "   **   ~~~   ** ..discovered in \"Daylighting:Controls\" for Zone=\"SIDE_ENTRY_2 ZONE\", only 1.00 of the zone is controlled.",
    "   ** Warning ** GetDaylightingControls: Fraction of Zone controlled by the Daylighting reference points is < 1.0.",
    "   **   ~~~   ** ..discovered in \"Daylighting:Controls\" for Zone=\"SIDE_SHELVING_EAST ZONE\", only 0.84 of the zone is controlled.",
    "   ** Warning ** GetDaylightingControls: Fraction of Zone controlled by the Daylighting reference points is < 1.0.",
    "   **   ~~~   ** ..discovered in \"Daylighting:Controls\" for Zone=\"SIDE_SHELVING_WEST ZONE\", only 0.95 of the zone is controlled.",
    "   ** Warning ** GetDaylightingControls: Fraction of Zone controlled by the Daylighting reference points is < 1.0.",
    "   **   ~~~   ** ..discovered in \"Daylighting:Controls\" for Zone=\"SIDE_STORAGE_1 ZONE\", only 0.85 of the zone is controlled.",
    "   ** Warning ** GetDaylightingControls: Fraction of Zone controlled by the Daylighting reference points is < 1.0.",
    "   **   ~~~   ** ..discovered in \"Daylighting:Controls\" for Zone=\"SIDE_STORAGE_2 ZONE\", only 0.77 of the zone is controlled.",
    "   ** Warning ** GetSimpleAirModelInputs: ZoneInfiltration:DesignFlowRate=\"BACK_SHELVING/REFRIG SPACE INFILTRATION DESIGN FLOW RATE 1\", Design Flow Rate Calculation Method specifies Flow per Exterior Surface Area, but Exterior Wall Area = 0.  0 Infiltration will result.",
    "   ************* Beginning System Sizing Calculations",
    "   ** Warning ** Since Zone Minimum Air Flow Input Method = FIXEDFLOWRATE, input for Constant Minimum Air Flow Fraction will be ignored.",
    "   **   ~~~   ** Occurs in AirTerminal:SingleDuct:VAV:NoReheat = BACK_OFFICE_TU",
    "   ** Warning ** Since Zone Minimum Air Flow Input Method = FIXEDFLOWRATE, input for Constant Minimum Air Flow Fraction will be ignored.",
    "   **   ~~~   ** Occurs in AirTerminal:SingleDuct:VAV:NoReheat = BACK_SHELVING/REFRIG_TU",
    "   ** Warning ** Since Zone Minimum Air Flow Input Method = FIXEDFLOWRATE, input for Constant Minimum Air Flow Fraction will be ignored.",
    "   **   ~~~   ** Occurs in AirTerminal:SingleDuct:VAV:NoReheat = BACK_STORAGE_TU",
    "   ** Warning ** Since Zone Minimum Air Flow Input Method = FIXEDFLOWRATE, input for Constant Minimum Air Flow Fraction will be ignored.",
    "   **   ~~~   ** Occurs in AirTerminal:SingleDuct:VAV:NoReheat = MAIN_ENTRY_TU",
    "   ** Warning ** Since Zone Minimum Air Flow Input Method = FIXEDFLOWRATE, input for Constant Minimum Air Flow Fraction will be ignored.",
    "   **   ~~~   ** Occurs in AirTerminal:SingleDuct:VAV:NoReheat = REGISTERS/AISLE_TU",
    "   ** Warning ** Since Zone Minimum Air Flow Input Method = FIXEDFLOWRATE, input for Constant Minimum Air Flow Fraction will be ignored.",
    "   **   ~~~   ** Occurs in AirTerminal:SingleDuct:VAV:NoReheat = RESTROOM_1_TU",
    "   ** Warning ** Since Zone Minimum Air Flow Input Method = FIXEDFLOWRATE, input for Constant Minimum Air Flow Fraction will be ignored.",
    "   **   ~~~   ** Occurs in AirTerminal:SingleDuct:VAV:NoReheat = RESTROOM_2_TU",
    "   ** Warning ** Since Zone Minimum Air Flow Input Method = FIXEDFLOWRATE, input for Constant Minimum Air Flow Fraction will be ignored.",
    "   **   ~~~   ** Occurs in AirTerminal:SingleDuct:VAV:NoReheat = SIDE_ENTRY_1_TU",
    "   ** Warning ** Since Zone Minimum Air Flow Input Method = FIXEDFLOWRATE, input for Constant Minimum Air Flow Fraction will be ignored.",
    "   **   ~~~   ** Occurs in AirTerminal:SingleDuct:VAV:NoReheat = SIDE_ENTRY_2_TU",
    "   ** Warning ** Since Zone Minimum Air Flow Input Method = FIXEDFLOWRATE, input for Constant Minimum Air Flow Fraction will be ignored.",
    "   **   ~~~   ** Occurs in AirTerminal:SingleDuct:VAV:NoReheat = SIDE_SHELVING_EAST_TU",
    "   ** Warning ** Since Zone Minimum Air Flow Input Method = FIXEDFLOWRATE, input for Constant Minimum Air Flow Fraction will be ignored.",
    "   **   ~~~   ** Occurs in AirTerminal:SingleDuct:VAV:NoReheat = SIDE_SHELVING_WEST_TU",
    "   ** Warning ** Since Zone Minimum Air Flow Input Method = FIXEDFLOWRATE, input for Constant Minimum Air Flow Fraction will be ignored.",
    "   **   ~~~   ** Occurs in AirTerminal:SingleDuct:VAV:NoReheat = SIDE_STORAGE_1_TU",
    "   ** Warning ** Since Zone Minimum Air Flow Input Method = FIXEDFLOWRATE, input for Constant Minimum Air Flow Fraction will be ignored.",
    "   **   ~~~   ** Occurs in AirTerminal:SingleDuct:VAV:NoReheat = SIDE_STORAGE_2_TU",
    "   ************* Beginning Plant Sizing Calculations",
    "   ** Warning ** GetOAControllerInputs: Controller:MechanicalVentilation=\"BACK_OFFICE_OACTRL MECH VENT CONTROLLER",
    "   **   ~~~   ** Cannot locate a matching DesignSpecification:ZoneAirDistribution object for Zone=\"BACK_OFFICE ZONE\".",
    "   **   ~~~   ** Using default zone air distribution effectiveness of 1.0 for heating and cooling.",
    "   ** Warning ** GetOAControllerInputs: Controller:MechanicalVentilation=\"BACK_SHELVING/REFRIG_OACTRL MECH VENT CONTROLLER",
    "   **   ~~~   ** Cannot locate a matching DesignSpecification:ZoneAirDistribution object for Zone=\"BACK_SHELVING/REFRIG ZONE\".",
    "   **   ~~~   ** Using default zone air distribution effectiveness of 1.0 for heating and cooling.",
    "   ** Warning ** GetOAControllerInputs: Controller:MechanicalVentilation=\"BACK_STORAGE_OACTRL MECH VENT CONTROLLER",
    "   **   ~~~   ** Cannot locate a matching DesignSpecification:ZoneAirDistribution object for Zone=\"BACK_STORAGE ZONE\".",
    "   **   ~~~   ** Using default zone air distribution effectiveness of 1.0 for heating and cooling.",
    "   ** Warning ** GetOAControllerInputs: Controller:MechanicalVentilation=\"MAIN_ENTRY_OACTRL MECH VENT CONTROLLER",
    "   **   ~~~   ** Cannot locate a matching DesignSpecification:ZoneAirDistribution object for Zone=\"MAIN_ENTRY ZONE\".",
    "   **   ~~~   ** Using default zone air distribution effectiveness of 1.0 for heating and cooling.",
    "   ** Warning ** GetOAControllerInputs: Controller:MechanicalVentilation=\"REGISTERS/AISLE_OACTRL MECH VENT CONTROLLER",
    "   **   ~~~   ** Cannot locate a matching DesignSpecification:ZoneAirDistribution object for Zone=\"REGISTERS/AISLE ZONE\".",
    "   **   ~~~   ** Using default zone air distribution effectiveness of 1.0 for heating and cooling.",
    "   ** Warning ** GetOAControllerInputs: Controller:MechanicalVentilation=\"RESTROOM_1_OACTRL MECH VENT CONTROLLER",
    "   **   ~~~   ** Cannot locate a matching DesignSpecification:ZoneAirDistribution object for Zone=\"RESTROOM_1 ZONE\".",
    "   **   ~~~   ** Using default zone air distribution effectiveness of 1.0 for heating and cooling.",
    "   ** Warning ** GetOAControllerInputs: Controller:MechanicalVentilation=\"RESTROOM_2_OACTRL MECH VENT CONTROLLER",
    "   **   ~~~   ** Cannot locate a matching DesignSpecification:ZoneAirDistribution object for Zone=\"RESTROOM_2 ZONE\".",
    "   **   ~~~   ** Using default zone air distribution effectiveness of 1.0 for heating and cooling.",
    "   ** Warning ** GetOAControllerInputs: Controller:MechanicalVentilation=\"SIDE_ENTRY_1_OACTRL MECH VENT CONTROLLER",
    "   **   ~~~   ** Cannot locate a matching DesignSpecification:ZoneAirDistribution object for Zone=\"SIDE_ENTRY_1 ZONE\".",
    "   **   ~~~   ** Using default zone air distribution effectiveness of 1.0 for heating and cooling.",
    "   ** Warning ** GetOAControllerInputs: Controller:MechanicalVentilation=\"SIDE_ENTRY_2_OACTRL MECH VENT CONTROLLER",
    "   **   ~~~   ** Cannot locate a matching DesignSpecification:ZoneAirDistribution object for Zone=\"SIDE_ENTRY_2 ZONE\".",
    "   **   ~~~   ** Using default zone air distribution effectiveness of 1.0 for heating and cooling.",
    "   ** Warning ** GetOAControllerInputs: Controller:MechanicalVentilation=\"SIDE_SHELVING_EAST_OACTRL MECH VENT CONTROLLER",
    "   **   ~~~   ** Cannot locate a matching DesignSpecification:ZoneAirDistribution object for Zone=\"SIDE_SHELVING_EAST ZONE\".",
    "   **   ~~~   ** Using default zone air distribution effectiveness of 1.0 for heating and cooling.",
    "   ** Warning ** GetOAControllerInputs: Controller:MechanicalVentilation=\"SIDE_SHELVING_WEST_OACTRL MECH VENT CONTROLLER",
    "   **   ~~~   ** Cannot locate a matching DesignSpecification:ZoneAirDistribution object for Zone=\"SIDE_SHELVING_WEST ZONE\".",
    "   **   ~~~   ** Using default zone air distribution effectiveness of 1.0 for heating and cooling.",
    "   ** Warning ** GetOAControllerInputs: Controller:MechanicalVentilation=\"SIDE_STORAGE_1_OACTRL MECH VENT CONTROLLER",
    "   **   ~~~   ** Cannot locate a matching DesignSpecification:ZoneAirDistribution object for Zone=\"SIDE_STORAGE_1 ZONE\".",
    "   **   ~~~   ** Using default zone air distribution effectiveness of 1.0 for heating and cooling.",
    "   ** Warning ** GetOAControllerInputs: Controller:MechanicalVentilation=\"SIDE_STORAGE_2_OACTRL MECH VENT CONTROLLER",
    "   **   ~~~   ** Cannot locate a matching DesignSpecification:ZoneAirDistribution object for Zone=\"SIDE_STORAGE_2 ZONE\".",
    "   **   ~~~   ** Using default zone air distribution effectiveness of 1.0 for heating and cooling.",
    "   ** Warning ** Check input. Pump nominal power or motor efficiency is set to 0, for pump={F3BF514C-D780-46B4-BECB-04770DFC5A51}",
    "   ** Warning ** Output:Meter: invalid Key Name=\"DISTRICTCOOLING:FACILITY\" - not found.",
    "   ** Warning ** Output:Meter: invalid Key Name=\"DISTRICTHEATING:FACILITY\" - not found.",
    "   ** Warning ** Output:Meter:MeterFileOnly: invalid Key Name=\"COGENERATION:DISTRICTCOOLING\" - not found.",
    "   ** Warning ** Output:Meter:MeterFileOnly: invalid Key Name=\"COGENERATION:DISTRICTHEATING\" - not found.",
    "   ** Warning ** Output:Meter:MeterFileOnly: invalid Key Name=\"COGENERATION:ELECTRICITY\" - not found.",
    "   ** Warning ** Output:Meter:MeterFileOnly: invalid Key Name=\"COGENERATION:GAS\" - not found.",
    "   ** Warning ** Output:Meter:MeterFileOnly: invalid Key Name=\"COOLING:DISTRICTCOOLING\" - not found.",
    "   ** Warning ** Output:Meter:MeterFileOnly: invalid Key Name=\"COOLING:DISTRICTHEATING\" - not found.",
    "   ** Warning ** Output:Meter:MeterFileOnly: invalid Key Name=\"COOLING:GAS\" - not found.",
    "   ** Warning ** Output:Meter:MeterFileOnly: invalid Key Name=\"DISTRICTCOOLING:FACILITY\" - not found.",
    "   ** Warning ** Output:Meter:MeterFileOnly: invalid Key Name=\"DISTRICTHEATING:FACILITY\" - not found.",
    "   ** Warning ** Output:Meter:MeterFileOnly: invalid Key Name=\"EXTERIOREQUIPMENT:DISTRICTCOOLING\" - not found.",
    "   ** Warning ** Output:Meter:MeterFileOnly: invalid Key Name=\"EXTERIOREQUIPMENT:DISTRICTHEATING\" - not found.",
    "   ** Warning ** Output:Meter:MeterFileOnly: invalid Key Name=\"EXTERIOREQUIPMENT:ELECTRICITY\" - not found.",
    "   ** Warning ** Output:Meter:MeterFileOnly: invalid Key Name=\"EXTERIOREQUIPMENT:GAS\" - not found.",
    "   ** Warning ** Output:Meter:MeterFileOnly: invalid Key Name=\"EXTERIORLIGHTS:DISTRICTCOOLING\" - not found.",
    "   ** Warning ** Output:Meter:MeterFileOnly: invalid Key Name=\"EXTERIORLIGHTS:DISTRICTHEATING\" - not found.",
    "   ** Warning ** Output:Meter:MeterFileOnly: invalid Key Name=\"EXTERIORLIGHTS:ELECTRICITY\" - not found.",
    "   ** Warning ** Output:Meter:MeterFileOnly: invalid Key Name=\"EXTERIORLIGHTS:GAS\" - not found.",
    "   ** Warning ** Output:Meter:MeterFileOnly: invalid Key Name=\"FANS:DISTRICTCOOLING\" - not found.",
    "   ** Warning ** Output:Meter:MeterFileOnly: invalid Key Name=\"FANS:DISTRICTHEATING\" - not found.",
    "   ** Warning ** Output:Meter:MeterFileOnly: invalid Key Name=\"FANS:GAS\" - not found.",
    "   ** Warning ** Output:Meter:MeterFileOnly: invalid Key Name=\"HEATING:DISTRICTCOOLING\" - not found.",
    "   ** Warning ** Output:Meter:MeterFileOnly: invalid Key Name=\"HEATING:DISTRICTHEATING\" - not found.",
    "   ** Warning ** Output:Meter:MeterFileOnly: invalid Key Name=\"HEATRECOVERY:DISTRICTCOOLING\" - not found.",
    "   ** Warning ** Output:Meter:MeterFileOnly: invalid Key Name=\"HEATRECOVERY:DISTRICTHEATING\" - not found.",
    "   ** Warning ** Output:Meter:MeterFileOnly: invalid Key Name=\"HEATRECOVERY:ELECTRICITY\" - not found.",
    "   ** Warning ** Output:Meter:MeterFileOnly: invalid Key Name=\"HEATRECOVERY:GAS\" - not found.",
    "   ** Warning ** Output:Meter:MeterFileOnly: invalid Key Name=\"HEATREJECTION:DISTRICTCOOLING\" - not found.",
    "   ** Warning ** Output:Meter:MeterFileOnly: invalid Key Name=\"HEATREJECTION:DISTRICTHEATING\" - not found.",
    "   ** Warning ** Output:Meter:MeterFileOnly: invalid Key Name=\"HEATREJECTION:ELECTRICITY\" - not found.",
    "   ** Warning ** Output:Meter:MeterFileOnly: invalid Key Name=\"HEATREJECTION:GAS\" - not found.",
    "   ** Warning ** Output:Meter:MeterFileOnly: invalid Key Name=\"HUMIDIFIER:DISTRICTCOOLING\" - not found.",
    "   ** Warning ** Output:Meter:MeterFileOnly: invalid Key Name=\"HUMIDIFIER:DISTRICTHEATING\" - not found.",
    "   ** Warning ** Output:Meter:MeterFileOnly: invalid Key Name=\"HUMIDIFIER:ELECTRICITY\" - not found.",
    "   ** Warning ** Output:Meter:MeterFileOnly: invalid Key Name=\"HUMIDIFIER:GAS\" - not found.",
    "   ** Warning ** Output:Meter:MeterFileOnly: invalid Key Name=\"INTERIOREQUIPMENT:DISTRICTCOOLING\" - not found.",
    "   ** Warning ** Output:Meter:MeterFileOnly: invalid Key Name=\"INTERIOREQUIPMENT:DISTRICTHEATING\" - not found.",
    "   ** Warning ** Output:Meter:MeterFileOnly: invalid Key Name=\"INTERIOREQUIPMENT:GAS\" - not found.",
    "   ** Warning ** Output:Meter:MeterFileOnly: invalid Key Name=\"INTERIORLIGHTS:DISTRICTCOOLING\" - not found.",
    "   ** Warning ** Output:Meter:MeterFileOnly: invalid Key Name=\"INTERIORLIGHTS:DISTRICTHEATING\" - not found.",
    "   ** Warning ** Output:Meter:MeterFileOnly: invalid Key Name=\"INTERIORLIGHTS:GAS\" - not found.",
    "   ** Warning ** Output:Meter:MeterFileOnly: invalid Key Name=\"INTERNAL TRANSPORT:INTERIOREQUIPMENT:ELECTRICITY\" - not found.",
    "   ** Warning ** Output:Meter:MeterFileOnly: invalid Key Name=\"NONCOMPLIANCELTG:INTERIORLIGHTS:ELECTRICITY\" - not found.",
    "   ** Warning ** Output:Meter:MeterFileOnly: invalid Key Name=\"NONREG LTG:EXTERIORLIGHTS:ELECTRICITY\" - not found.",
    "   ** Warning ** Output:Meter:MeterFileOnly: invalid Key Name=\"PROCESS:EXTERIOREQUIPMENT:ELECTRICITY\" - not found.",
    "   ** Warning ** Output:Meter:MeterFileOnly: invalid Key Name=\"PROCESS:EXTERIOREQUIPMENT:GAS\" - not found.",
    "   ** Warning ** Output:Meter:MeterFileOnly: invalid Key Name=\"PROCESS:INTERIOREQUIPMENT:ELECTRICITY\" - not found.",
    "   ** Warning ** Output:Meter:MeterFileOnly: invalid Key Name=\"PROCESS:INTERIOREQUIPMENT:GAS\" - not found.",
    "   ** Warning ** Output:Meter:MeterFileOnly: invalid Key Name=\"PUMPS:DISTRICTCOOLING\" - not found.",
    "   ** Warning ** Output:Meter:MeterFileOnly: invalid Key Name=\"PUMPS:DISTRICTHEATING\" - not found.",
    "   ** Warning ** Output:Meter:MeterFileOnly: invalid Key Name=\"PUMPS:GAS\" - not found.",
    "   ** Warning ** Output:Meter:MeterFileOnly: invalid Key Name=\"RECEPTACLE:EXTERIOREQUIPMENT:ELECTRICITY\" - not found.",
    "   ** Warning ** Output:Meter:MeterFileOnly: invalid Key Name=\"RECEPTACLE:EXTERIOREQUIPMENT:GAS\" - not found.",
    "   ** Warning ** Output:Meter:MeterFileOnly: invalid Key Name=\"RECEPTACLE:INTERIOREQUIPMENT:GAS\" - not found.",
    "   ** Warning ** Output:Meter:MeterFileOnly: invalid Key Name=\"REFRIG:EXTERIOREQUIPMENT:ELECTRICITY\" - not found.",
    "   ** Warning ** Output:Meter:MeterFileOnly: invalid Key Name=\"REFRIG:INTERIOREQUIPMENT:ELECTRICITY\" - not found.",
    "   ** Warning ** Output:Meter:MeterFileOnly: invalid Key Name=\"REFRIGERATION:DISTRICTCOOLING\" - not found.",
    "   ** Warning ** Output:Meter:MeterFileOnly: invalid Key Name=\"REFRIGERATION:DISTRICTHEATING\" - not found.",
    "   ** Warning ** Output:Meter:MeterFileOnly: invalid Key Name=\"REFRIGERATION:ELECTRICITY\" - not found.",
    "   ** Warning ** Output:Meter:MeterFileOnly: invalid Key Name=\"REFRIGERATION:GAS\" - not found.",
    "   ** Warning ** Output:Meter:MeterFileOnly: invalid Key Name=\"REG LTG:EXTERIORLIGHTS:ELECTRICITY\" - not found.",
    "   ** Warning ** Output:Meter:MeterFileOnly: invalid Key Name=\"WATERSYSTEMS:DISTRICTCOOLING\" - not found.",
    "   ** Warning ** Output:Meter:MeterFileOnly: invalid Key Name=\"WATERSYSTEMS:DISTRICTHEATING\" - not found.",
    "   ** Warning ** Output:Meter:MeterFileOnly: invalid Key Name=\"WATERSYSTEMS:ELECTRICITY\" - not found.",
    "   ** Warning ** Output:Meter:MeterFileOnly requested for \"Electricity:Facility\" (TimeStep), already on \"Output:Meter\". Will report to both eplusout.eso and eplusout.mtr",
    "   ************* Testing Individual Branch Integrity",
    "   ************* All Branches passed integrity testing",
    "   ************* Testing Individual Supply Air Path Integrity",
    "   ************* All Supply Air Paths passed integrity testing",
    "   ************* Testing Individual Return Air Path Integrity",
    "   ************* All Return Air Paths passed integrity testing",
    "   ************* No node connection errors were found.",
    "   ************* Beginning Simulation",
    "   ** Warning ** Processing Monthly Tabular Reports: Variable names not valid for this simulation",
    "   **   ~~~   ** ...use Output:Diagnostics,DisplayExtraWarnings; to show more details on individual variables.",
    "   ** Warning ** SimHVAC: Maximum iterations (20) exceeded for all HVAC loops, at SACRAMENTO-EXECUTIVE_724830_CZ2010, 04/16 07:30 - 07:45",
    "   **   ~~~   ** The solution for one or more of the Air Loop HVAC systems did not appear to converge",
    "   **   ~~~   ** ...use Output:Diagnostics,DisplayExtraWarnings; to show more details on each max iteration exceeded.",
    "   ** Warning ** SimHVAC: Maximum iterations (20) exceeded for all HVAC loops, at SACRAMENTO-EXECUTIVE_724830_CZ2010, 05/25 06:15 - 06:30",
    "   **   ~~~   ** The solution for one or more of the Air Loop HVAC systems did not appear to converge",
    "   ** Warning ** SimHVAC: Maximum iterations (20) exceeded for all HVAC loops, at SACRAMENTO-EXECUTIVE_724830_CZ2010, 05/26 07:00 - 07:15",
    "   **   ~~~   ** The solution for one or more of the Air Loop HVAC systems did not appear to converge",
    "   ** Warning ** SimHVAC: Maximum iterations (20) exceeded for all HVAC loops, at SACRAMENTO-EXECUTIVE_724830_CZ2010, 05/30 08:30 - 08:38",
    "   **   ~~~   ** The solution for one or more of the Air Loop HVAC systems did not appear to converge",
    "   ** Warning ** SimHVAC: Maximum iterations (20) exceeded for all HVAC loops, at SACRAMENTO-EXECUTIVE_724830_CZ2010, 05/30 09:30 - 09:45",
    "   **   ~~~   ** The solution for one or more of the Air Loop HVAC systems did not appear to converge",
    "   ** Warning ** SimHVAC: Maximum iterations (20) exceeded for all HVAC loops, at SACRAMENTO-EXECUTIVE_724830_CZ2010, 05/30 11:30 - 11:45",
    "   **   ~~~   ** The solution for one or more of the Air Loop HVAC systems did not appear to converge",
    "   ** Warning ** SimHVAC: Maximum iterations (20) exceeded for all HVAC loops, at SACRAMENTO-EXECUTIVE_724830_CZ2010, 06/04 07:15 - 07:30",
    "   **   ~~~   ** The solution for one or more of the Air Loop HVAC systems did not appear to converge",
    "   ** Warning ** SimHVAC: Maximum iterations (20) exceeded for all HVAC loops, at SACRAMENTO-EXECUTIVE_724830_CZ2010, 06/06 09:23 - 09:30",
    "   **   ~~~   ** The solution for one or more of the Air Loop HVAC systems did not appear to converge",
    "   ** Warning ** SimHVAC: Maximum iterations (20) exceeded for all HVAC loops, at SACRAMENTO-EXECUTIVE_724830_CZ2010, 06/15 06:15 - 06:30",
    "   **   ~~~   ** The solution for one or more of the Air Loop HVAC systems did not appear to converge",
    "   ** Warning ** SimHVAC: Maximum iterations (20) exceeded for all HVAC loops, at SACRAMENTO-EXECUTIVE_724830_CZ2010, 06/15 06:15 - 06:22",
    "   **   ~~~   ** The solution for one or more of the Air Loop HVAC systems did not appear to converge",
    "   ** Warning ** SimHVAC: Maximum iterations (20) exceeded for all HVAC loops, at SACRAMENTO-EXECUTIVE_724830_CZ2010, 06/15 06:30 - 06:45",
    "   **   ~~~   ** The solution for one or more of the Air Loop HVAC systems did not appear to converge",
    "   ** Warning ** SimHVAC: Maximum iterations (20) exceeded for all HVAC loops, at SACRAMENTO-EXECUTIVE_724830_CZ2010, 06/15 06:30 - 06:38",
    "   **   ~~~   ** The solution for one or more of the Air Loop HVAC systems did not appear to converge",
    "   ** Warning ** SimHVAC: Maximum iterations (20) exceeded for all HVAC loops, at SACRAMENTO-EXECUTIVE_724830_CZ2010, 06/16 06:25 - 06:30",
    "   **   ~~~   ** The solution for one or more of the Air Loop HVAC systems did not appear to converge",
    "   ** Warning ** SimHVAC: Maximum iterations (20) exceeded for all HVAC loops, at SACRAMENTO-EXECUTIVE_724830_CZ2010, 06/17 06:25 - 06:30",
    "   **   ~~~   ** The solution for one or more of the Air Loop HVAC systems did not appear to converge",
    "   ** Warning ** The resource referenced by LifeCycleCost:UsePriceEscalation= \"U.S. AVG  COMMERCIAL-ELECTRICITY\" has no energy cost. ",
    "   **   ~~~   ** ... It is likely that the wrong resource is used. The resource should match the meter used in Utility:Tariff.",
    "   ** Warning ** The resource referenced by LifeCycleCost:UsePriceEscalation= \"U.S. AVG  COMMERCIAL-DISTILLATE OIL\" has no energy cost. ",
    "   **   ~~~   ** ... It is likely that the wrong resource is used. The resource should match the meter used in Utility:Tariff.",
    "   ** Warning ** The resource referenced by LifeCycleCost:UsePriceEscalation= \"U.S. AVG  COMMERCIAL-RESIDUAL OIL\" has no energy cost. ",
    "   **   ~~~   ** ... It is likely that the wrong resource is used. The resource should match the meter used in Utility:Tariff.",
    "   ** Warning ** The resource referenced by LifeCycleCost:UsePriceEscalation= \"U.S. AVG  COMMERCIAL-NATURAL GAS\" has no energy cost. ",
    "   **   ~~~   ** ... It is likely that the wrong resource is used. The resource should match the meter used in Utility:Tariff.",
    "   ** Warning ** The resource referenced by LifeCycleCost:UsePriceEscalation= \"U.S. AVG  COMMERCIAL-COAL\" has no energy cost. ",
    "   **   ~~~   ** ... It is likely that the wrong resource is used. The resource should match the meter used in Utility:Tariff.",
    "   ************* Simulation Error Summary *************",
    "   ************* There are 17 unused schedules in input.",
    "   ************* There are 17 unused week schedules in input.",
    "   ************* There are 38 unused day schedules in input.",
    "   ************* Use Output:Diagnostics,DisplayUnusedSchedules; to see them.",
    "   *************",
    "   ************* ===== Recurring Error Summary =====",
    "   ************* The following recurring error messages occurred.",
    "   *************",
    "   *************  ** Warning ** SimHVAC: Exceeding Maximum iterations for all HVAC loops, during SACRAMENTO-EXECUTIVE_724830_CZ2010 continues",
    "   *************  **   ~~~   **   This error occurred 23 total times;",
    "   *************  **   ~~~   **   during Warmup 0 times;",
    "   *************  **   ~~~   **   during Sizing 0 times.",
    "   *************",
    "   ************* EnergyPlus Warmup Error Summary. During Warmup: 0 Warning; 0 Severe Errors.",
    "   ************* EnergyPlus Sizing Error Summary. During Sizing: 63 Warning; 0 Severe Errors.",
    "   ************* EnergyPlus Completed Successfully-- 186 Warning; 0 Severe Errors; "
  ],
  "file_paths": [
    "/home/julien/Software/Others/OpenStudio-resources/testruns/090012_RetlLrg_CECStd.xml/generated_files",
    "./files",
    "./weather",
    "../../files",
    "../../weather",
    "./"
  ],
  "seed_file": "in.osm",
  "steps": [
    {
      "arguments": {
      },
      "measure_dir_name": "openstudio_results",
      "result": {
        "measure_class_name": "OpenStudioResults",
        "measure_display_name": "OpenStudio Results",
        "measure_name": "openstudio_results",
        "measure_taxonomy": "Reporting.QAQC",
        "measure_type": "ReportingMeasure",
        "measure_uid": "a25386cd-60e4-46bc-8b11-c755f379d916",
        "measure_version_id": "02ad7007-fe7b-4747-bd7a-29d697c4d91a",
        "measure_version_modified": "20180711T183039Z",
        "measure_xml_checksum": "557BF06F",
        "stderr": "",
        "stdout": "",
        "step_errors": [

        ],
        "step_final_condition": "Generated report with 21 sections to ./report.html.",
        "step_info": [

        ],
        "step_initial_condition": "Gathering data from EnergyPlus SQL file and OSM model.",
        "step_result": "Success",
        "step_values": [
          {
            "name": "building_summary_section",
            "value": true
          },
          {
            "name": "annual_overview_section",
            "value": true
          },
          {
            "name": "monthly_overview_section",
            "value": true
          },
          {
            "name": "utility_bills_rates_section",
            "value": true
          },
          {
            "name": "envelope_section_section",
            "value": true
          },
          {
            "name": "space_type_breakdown_section",
            "value": true
          },
          {
            "name": "space_type_details_section",
            "value": true
          },
          {
            "name": "interior_lighting_section",
            "value": true
          },
          {
            "name": "plug_loads_section",
            "value": true
          },
          {
            "name": "exterior_light_section",
            "value": true
          },
          {
            "name": "water_use_section",
            "value": true
          },
          {
            "name": "hvac_load_profile",
            "value": true
          },
          {
            "name": "zone_condition_section",
            "value": true
          },
          {
            "name": "zone_summary_section",
            "value": true
          },
          {
            "name": "zone_equipment_detail_section",
            "value": true
          },
          {
            "name": "air_loops_detail_section",
            "value": true
          },
          {
            "name": "plant_loops_detail_section",
            "value": true
          },
          {
            "name": "outdoor_air_section",
            "value": true
          },
          {
            "name": "cost_summary_section",
            "value": true
          },
          {
            "name": "source_energy_section",
            "value": true
          },
          {
            "name": "schedules_overview_section",
            "value": true
          },
          {
            "name": "standards_gem_version",
            "value": "0.2.11"
          },
          {
            "name": "workflow_gem_version",
            "value": "2.0.0"
          },
          {
            "display_name": "Retail Large",
            "name": "building_name",
            "value": "n/a"
          },
          {
            "name": "total_site_energy",
            "units": "kBtu",
            "value": 12694048.35
          },
          {
            "name": "net_site_energy",
            "units": "kBtu",
            "value": 12694048.35
          },
          {
            "name": "total_building_area",
            "units": "ft^2",
            "value": 240000.0
          },
          {
            "name": "total_site_eui",
            "units": "kBtu/ft^2",
            "value": 52.89
          },
          {
            "name": "eui",
            "units": "kBtu/ft^2",
            "value": 52.89
          },
          {
            "name": "unmet_hours_during_heating",
            "units": "hr",
            "value": 313.75
          },
          {
            "name": "unmet_hours_during_cooling",
            "units": "hr",
            "value": 8.0
          },
          {
            "name": "unmet_hours_during_occupied_heating",
            "units": "hr",
            "value": 18.25
          },
          {
            "name": "unmet_hours_during_occupied_cooling",
            "units": "hr",
            "value": 0.0
          },
          {
            "name": "unmet_hours_tolerance_heating",
            "units": "F",
            "value": 1.01
          },
          {
            "name": "unmet_hours_tolerance_cooling",
            "units": "F",
            "value": 1.01
          },
          {
            "name": "end_use_heating",
            "units": "kBtu",
            "value": 5615342.53
          },
          {
            "name": "end_use_cooling",
            "units": "kBtu",
            "value": 803161.27
          },
          {
            "name": "end_use_interior_lighting",
            "units": "kBtu",
            "value": 2238886.21
          },
          {
            "name": "end_use_exterior_lighting",
            "units": "kBtu",
            "value": 0.0
          },
          {
            "name": "end_use_interior_equipment",
            "units": "kBtu",
            "value": 2385314.48
          },
          {
            "name": "end_use_exterior_equipment",
            "units": "kBtu",
            "value": 0.0
          },
          {
            "name": "end_use_fans",
            "units": "kBtu",
            "value": 1042921.09
          },
          {
            "name": "end_use_pumps",
            "units": "kBtu",
            "value": 0.0
          },
          {
            "name": "end_use_heat_rejection",
            "units": "kBtu",
            "value": 0.0
          },
          {
            "name": "end_use_humidification",
            "units": "kBtu",
            "value": 0.0
          },
          {
            "name": "end_use_heat_recovery",
            "units": "kBtu",
            "value": 0.0
          },
          {
            "name": "end_use_water_systems",
            "units": "kBtu",
            "value": 608413.29
          },
          {
            "name": "end_use_refrigeration",
            "units": "kBtu",
            "value": 0.0
          },
          {
            "name": "end_use_generators",
            "units": "kBtu",
            "value": 0.0
          },
          {
            "name": "fuel_electricity",
            "units": "kBtu",
            "value": 6470292.53
          },
          {
            "name": "fuel_natural_gas",
            "units": "kBtu",
            "value": 6223765.3
          },
          {
            "name": "fuel_additional_fuel",
            "units": "kBtu",
            "value": 0.0
          },
          {
            "name": "fuel_district_cooling",
            "units": "kBtu",
            "value": 0.0
          },
          {
            "name": "fuel_district_heating",
            "units": "kBtu",
            "value": 0.0
          },
          {
            "name": "end_use_electricity_heating",
            "units": "kWh",
            "value": 0.0
          },
          {
            "name": "end_use_electricity_cooling",
            "units": "kWh",
            "value": 235383.33
          },
          {
            "name": "end_use_electricity_interior_lighting",
            "units": "kWh",
            "value": 656152.78
          },
          {
            "name": "end_use_electricity_exterior_lighting",
            "units": "kWh",
            "value": 0.0
          },
          {
            "name": "end_use_electricity_interior_equipment",
            "units": "kWh",
            "value": 699066.67
          },
          {
            "name": "end_use_electricity_exterior_equipment",
            "units": "kWh",
            "value": 0.0
          },
          {
            "name": "end_use_electricity_fans",
            "units": "kWh",
            "value": 305650.0
          },
          {
            "name": "end_use_electricity_pumps",
            "units": "kWh",
            "value": 0.0
          },
          {
            "name": "end_use_electricity_heat_rejection",
            "units": "kWh",
            "value": 0.0
          },
          {
            "name": "end_use_electricity_humidification",
            "units": "kWh",
            "value": 0.0
          },
          {
            "name": "end_use_electricity_heat_recovery",
            "units": "kWh",
            "value": 0.0
          },
          {
            "name": "end_use_electricity_water_systems",
            "units": "kWh",
            "value": 0.0
          },
          {
            "name": "end_use_electricity_refrigeration",
            "units": "kWh",
            "value": 0.0
          },
          {
            "name": "end_use_electricity_generators",
            "units": "kWh",
            "value": 0.0
          },
          {
            "name": "end_use_natural_gas_heating",
            "units": "therms",
            "value": 56164.26
          },
          {
            "name": "end_use_natural_gas_cooling",
            "units": "therms",
            "value": 0.0
          },
          {
            "name": "end_use_natural_gas_interior_lighting",
            "units": "therms",
            "value": 0.0
          },
          {
            "name": "end_use_natural_gas_exterior_lighting",
            "units": "therms",
            "value": 0.0
          },
          {
            "name": "end_use_natural_gas_interior_equipment",
            "units": "therms",
            "value": 0.0
          },
          {
            "name": "end_use_natural_gas_exterior_equipment",
            "units": "therms",
            "value": 0.0
          },
          {
            "name": "end_use_natural_gas_fans",
            "units": "therms",
            "value": 0.0
          },
          {
            "name": "end_use_natural_gas_pumps",
            "units": "therms",
            "value": 0.0
          },
          {
            "name": "end_use_natural_gas_heat_rejection",
            "units": "therms",
            "value": 0.0
          },
          {
            "name": "end_use_natural_gas_humidification",
            "units": "therms",
            "value": 0.0
          },
          {
            "name": "end_use_natural_gas_heat_recovery",
            "units": "therms",
            "value": 0.0
          },
          {
            "name": "end_use_natural_gas_water_systems",
            "units": "therms",
            "value": 6085.31
          },
          {
            "name": "end_use_natural_gas_refrigeration",
            "units": "therms",
            "value": 0.0
          },
          {
            "name": "end_use_natural_gas_generators",
            "units": "therms",
            "value": 0.0
          },
          {
            "name": "electricity_heating_ip",
            "units": "kWh",
            "value": 0.0
          },
          {
            "name": "electricity_cooling_ip",
            "units": "kWh",
            "value": 235383.71
          },
          {
            "name": "electricity_interior_lighting_ip",
            "units": "kWh",
            "value": 656153.61
          },
          {
            "name": "electricity_exterior_lighting_ip",
            "units": "kWh",
            "value": 0.0
          },
          {
            "name": "electricity_interior_equipment_ip",
            "units": "kWh",
            "value": 699067.78
          },
          {
            "name": "electricity_exterior_equipment_ip",
            "units": "kWh",
            "value": 0.0
          },
          {
            "name": "electricity_fans_ip",
            "units": "kWh",
            "value": 305649.58
          },
          {
            "name": "electricity_pumps_ip",
            "units": "kWh",
            "value": 0.0
          },
          {
            "name": "electricity_heat_rejection_ip",
            "units": "kWh",
            "value": 0.0
          },
          {
            "name": "electricity_humidification_ip",
            "units": "kWh",
            "value": 0.0
          },
          {
            "name": "electricity_heat_recovery_ip",
            "units": "kWh",
            "value": 0.0
          },
          {
            "name": "electricity_water_systems_ip",
            "units": "kWh",
            "value": 0.0
          },
          {
            "name": "electricity_refrigeration_ip",
            "units": "kWh",
            "value": 0.0
          },
          {
            "name": "electricity_generators_ip",
            "units": "kWh",
            "value": 0.0
          },
          {
            "name": "electricity_ip",
            "units": "kWh",
            "value": 1896254.68
          },
          {
            "name": "natural_gas_heating_ip",
            "units": "MBtu",
            "value": 5615.35
          },
          {
            "name": "natural_gas_cooling_ip",
            "units": "MBtu",
            "value": 0.0
          },
          {
            "name": "natural_gas_interior_lighting_ip",
            "units": "MBtu",
            "value": 0.0
          },
          {
            "name": "natural_gas_exterior_lighting_ip",
            "units": "MBtu",
            "value": 0.0
          },
          {
            "name": "natural_gas_interior_equipment_ip",
            "units": "MBtu",
            "value": 0.0
          },
          {
            "name": "natural_gas_exterior_equipment_ip",
            "units": "MBtu",
            "value": 0.0
          },
          {
            "name": "natural_gas_fans_ip",
            "units": "MBtu",
            "value": 0.0
          },
          {
            "name": "natural_gas_pumps_ip",
            "units": "MBtu",
            "value": 0.0
          },
          {
            "name": "natural_gas_heat_rejection_ip",
            "units": "MBtu",
            "value": 0.0
          },
          {
            "name": "natural_gas_humidification_ip",
            "units": "MBtu",
            "value": 0.0
          },
          {
            "name": "natural_gas_heat_recovery_ip",
            "units": "MBtu",
            "value": 0.0
          },
          {
            "name": "natural_gas_water_systems_ip",
            "units": "MBtu",
            "value": 608.42
          },
          {
            "name": "natural_gas_refrigeration_ip",
            "units": "MBtu",
            "value": 0.0
          },
          {
            "name": "natural_gas_generators_ip",
            "units": "MBtu",
            "value": 0.0
          },
          {
            "name": "natural_gas_ip",
            "units": "MBtu",
            "value": 6223.77
          },
          {
            "name": "additional_fuel_heating_ip",
            "units": "MBtu",
            "value": 0.0
          },
          {
            "name": "additional_fuel_cooling_ip",
            "units": "MBtu",
            "value": 0.0
          },
          {
            "name": "additional_fuel_interior_lighting_ip",
            "units": "MBtu",
            "value": 0.0
          },
          {
            "name": "additional_fuel_exterior_lighting_ip",
            "units": "MBtu",
            "value": 0.0
          },
          {
            "name": "additional_fuel_interior_equipment_ip",
            "units": "MBtu",
            "value": 0.0
          },
          {
            "name": "additional_fuel_exterior_equipment_ip",
            "units": "MBtu",
            "value": 0.0
          },
          {
            "name": "additional_fuel_fans_ip",
            "units": "MBtu",
            "value": 0.0
          },
          {
            "name": "additional_fuel_pumps_ip",
            "units": "MBtu",
            "value": 0.0
          },
          {
            "name": "additional_fuel_heat_rejection_ip",
            "units": "MBtu",
            "value": 0.0
          },
          {
            "name": "additional_fuel_humidification_ip",
            "units": "MBtu",
            "value": 0.0
          },
          {
            "name": "additional_fuel_heat_recovery_ip",
            "units": "MBtu",
            "value": 0.0
          },
          {
            "name": "additional_fuel_water_systems_ip",
            "units": "MBtu",
            "value": 0.0
          },
          {
            "name": "additional_fuel_refrigeration_ip",
            "units": "MBtu",
            "value": 0.0
          },
          {
            "name": "additional_fuel_generators_ip",
            "units": "MBtu",
            "value": 0.0
          },
          {
            "name": "additional_fuel_ip",
            "units": "MBtu",
            "value": 0.0
          },
          {
            "name": "district_cooling_heating_ip",
            "units": "MBtu",
            "value": 0.0
          },
          {
            "name": "district_cooling_cooling_ip",
            "units": "MBtu",
            "value": 0.0
          },
          {
            "name": "district_cooling_interior_lighting_ip",
            "units": "MBtu",
            "value": 0.0
          },
          {
            "name": "district_cooling_exterior_lighting_ip",
            "units": "MBtu",
            "value": 0.0
          },
          {
            "name": "district_cooling_interior_equipment_ip",
            "units": "MBtu",
            "value": 0.0
          },
          {
            "name": "district_cooling_exterior_equipment_ip",
            "units": "MBtu",
            "value": 0.0
          },
          {
            "name": "district_cooling_fans_ip",
            "units": "MBtu",
            "value": 0.0
          },
          {
            "name": "district_cooling_pumps_ip",
            "units": "MBtu",
            "value": 0.0
          },
          {
            "name": "district_cooling_heat_rejection_ip",
            "units": "MBtu",
            "value": 0.0
          },
          {
            "name": "district_cooling_humidification_ip",
            "units": "MBtu",
            "value": 0.0
          },
          {
            "name": "district_cooling_heat_recovery_ip",
            "units": "MBtu",
            "value": 0.0
          },
          {
            "name": "district_cooling_water_systems_ip",
            "units": "MBtu",
            "value": 0.0
          },
          {
            "name": "district_cooling_refrigeration_ip",
            "units": "MBtu",
            "value": 0.0
          },
          {
            "name": "district_cooling_generators_ip",
            "units": "MBtu",
            "value": 0.0
          },
          {
            "name": "district_cooling_ip",
            "units": "MBtu",
            "value": 0.0
          },
          {
            "name": "district_heating_heating_ip",
            "units": "MBtu",
            "value": 0.0
          },
          {
            "name": "district_heating_cooling_ip",
            "units": "MBtu",
            "value": 0.0
          },
          {
            "name": "district_heating_interior_lighting_ip",
            "units": "MBtu",
            "value": 0.0
          },
          {
            "name": "district_heating_exterior_lighting_ip",
            "units": "MBtu",
            "value": 0.0
          },
          {
            "name": "district_heating_interior_equipment_ip",
            "units": "MBtu",
            "value": 0.0
          },
          {
            "name": "district_heating_exterior_equipment_ip",
            "units": "MBtu",
            "value": 0.0
          },
          {
            "name": "district_heating_fans_ip",
            "units": "MBtu",
            "value": 0.0
          },
          {
            "name": "district_heating_pumps_ip",
            "units": "MBtu",
            "value": 0.0
          },
          {
            "name": "district_heating_heat_rejection_ip",
            "units": "MBtu",
            "value": 0.0
          },
          {
            "name": "district_heating_humidification_ip",
            "units": "MBtu",
            "value": 0.0
          },
          {
            "name": "district_heating_heat_recovery_ip",
            "units": "MBtu",
            "value": 0.0
          },
          {
            "name": "district_heating_water_systems_ip",
            "units": "MBtu",
            "value": 0.0
          },
          {
            "name": "district_heating_refrigeration_ip",
            "units": "MBtu",
            "value": 0.0
          },
          {
            "name": "district_heating_generators_ip",
            "units": "MBtu",
            "value": 0.0
          },
          {
            "name": "district_heating_ip",
            "units": "MBtu",
            "value": 0.0
          },
          {
            "name": "water_heating_ip",
            "units": "MBtu",
            "value": 0.0
          },
          {
            "name": "water_cooling_ip",
            "units": "MBtu",
            "value": 0.0
          },
          {
            "name": "water_interior_lighting_ip",
            "units": "MBtu",
            "value": 0.0
          },
          {
            "name": "water_exterior_lighting_ip",
            "units": "MBtu",
            "value": 0.0
          },
          {
            "name": "water_interior_equipment_ip",
            "units": "MBtu",
            "value": 0.0
          },
          {
            "name": "water_exterior_equipment_ip",
            "units": "MBtu",
            "value": 0.0
          },
          {
            "name": "water_fans_ip",
            "units": "MBtu",
            "value": 0.0
          },
          {
            "name": "water_pumps_ip",
            "units": "MBtu",
            "value": 0.0
          },
          {
            "name": "water_heat_rejection_ip",
            "units": "MBtu",
            "value": 0.0
          },
          {
            "name": "water_humidification_ip",
            "units": "MBtu",
            "value": 0.0
          },
          {
            "name": "water_heat_recovery_ip",
            "units": "MBtu",
            "value": 0.0
          },
          {
            "name": "water_water_systems_ip",
            "units": "MBtu",
            "value": 0.0
          },
          {
            "name": "water_refrigeration_ip",
            "units": "MBtu",
            "value": 0.0
          },
          {
            "name": "water_generators_ip",
            "units": "MBtu",
            "value": 0.0
          },
          {
            "name": "water_ip",
            "units": "MBtu",
            "value": 0.0
          },
          {
            "name": "base_cz_12_flat_nonres_wood_framing_and_other_roof_u_034",
            "units": "ft^2",
            "value": 236624.0
          },
          {
            "name": "base_cz_12_nonres_metal_frame_wall_u_062",
            "units": "ft^2",
            "value": 43239.98
          },
          {
            "name": "base_all_cz_fixed_window_u_36",
            "units": "ft^2",
            "value": 5880.02
          },
          {
            "name": "base_all_cz_n_swng_ext_door_u_145",
            "units": "ft^2",
            "value": 880.0
          },
          {
            "name": "base_all_cz_skylt_gl_curb_mnt_u_58",
            "units": "ft^2",
            "value": 3376.0
          },
          {
            "name": "gross_window_wall_ratio",
            "units": "%",
            "value": 11.76
          },
          {
            "name": "gross_window_wall_ratio_conditioned",
            "units": "%",
            "value": 11.76
          },
          {
            "name": "skylight_roof_ratio",
            "units": "%",
            "value": 1.41
          },
          {
            "name": "space_type_no_space_type",
            "units": "ft^2",
            "value": 240000.0
          },
          {
            "name": "exterior_lighting_total_power",
            "units": "W",
            "value": 0.0
          },
          {
            "name": "exterior_lighting_total_consumption",
            "units": "kWh",
            "value": 3720258.33
          },
          {
            "name": "aisle_1_water_use_equipment",
            "units": "gal/min",
            "value": 0.28
          },
          {
            "name": "aisle_2_water_use_equipment",
            "units": "gal/min",
            "value": 0.28
          },
          {
            "name": "aisle_3_water_use_equipment",
            "units": "gal/min",
            "value": 0.28
          },
          {
            "name": "aisle_4_water_use_equipment",
            "units": "gal/min",
            "value": 0.28
          },
          {
            "name": "back_office_water_use_equipment",
            "units": "gal/min",
            "value": 0.05
          },
          {
            "name": "back_shelving_refrig_water_use_equipment",
            "units": "gal/min",
            "value": 1.18
          },
          {
            "name": "back_storage_1_water_use_equipment",
            "units": "gal/min",
            "value": 0.04
          },
          {
            "name": "back_storage_2_water_use_equipment",
            "units": "gal/min",
            "value": 0.05
          },
          {
            "name": "main_entry_water_use_equipment",
            "units": "gal/min",
            "value": 0.34
          },
          {
            "name": "registers_water_use_equipment",
            "units": "gal/min",
            "value": 0.34
          },
          {
            "name": "side_entry_1_water_use_equipment",
            "units": "gal/min",
            "value": 0.34
          },
          {
            "name": "side_entry_2_water_use_equipment",
            "units": "gal/min",
            "value": 0.34
          },
          {
            "name": "side_shelving_1_water_use_equipment",
            "units": "gal/min",
            "value": 0.37
          },
          {
            "name": "side_shelving_2_water_use_equipment",
            "units": "gal/min",
            "value": 0.37
          },
          {
            "name": "side_shelving_3_water_use_equipment",
            "units": "gal/min",
            "value": 0.37
          },
          {
            "name": "side_shelving_4_water_use_equipment",
            "units": "gal/min",
            "value": 0.37
          },
          {
            "name": "side_storage_1_water_use_equipment",
            "units": "gal/min",
            "value": 0.04
          },
          {
            "name": "side_storage_2_water_use_equipment",
            "units": "gal/min",
            "value": 0.02
          },
          {
            "name": "inflation_approach",
            "value": "Constant Dollar"
          },
          {
            "name": "analysis_length",
            "units": "yrs",
            "value": 25
          },
          {
            "name": "annual_peak_electric_demand",
            "units": "kW",
            "value": 792.52
          },
          {
            "name": "first_year_capital_cost",
            "units": "$",
            "value": 0.0
          },
          {
            "name": "annual_utility_cost",
            "units": "$",
            "value": 0.0
          },
          {
            "name": "total_lifecycle_cost",
            "units": "$",
            "value": 0.0
          }
        ],
        "step_warnings": [

        ]
      }
    }
  ],
  "weather_file": "../../weatherdata/USA_IL_Chicago-OHare.Intl.AP.725300_TMY3.epw"
}