{
   "completed_at" : "20180205T201244Z",
   "completed_status" : "Fail",
   "current_step" : 0,
   "eplusout_err" : "Program Version,EnergyPlus, Version 8.8.0-d5f2442b35, YMD=2018.02.05 20:12,IDD_Version 8.8.0\n   ************* Beginning Zone Sizing Calculations\n   ** Warning ** ProcessScheduleInput: Schedule:Day:Interval=\"SCHEDULE DAY 2\", Blank Schedule Type Limits Name input -- will not be validated.\n   ** Warning ** ProcessScheduleInput: Schedule:Day:Interval=\"SCHEDULE DAY 3\", Blank Schedule Type Limits Name input -- will not be validated.\n   ** Warning ** ProcessScheduleInput: Schedule:Day:Interval=\"SCHEDULE DAY 4\", Blank Schedule Type Limits Name input -- will not be validated.\n   ** Warning ** ProcessScheduleInput: Schedule:Day:Interval=\"SCHEDULE DAY 5\", Blank Schedule Type Limits Name input -- will not be validated.\n   ** Warning ** ProcessScheduleInput: Schedule:Constant=\"ALWAYS OFF DISCRETE\", Blank Schedule Type Limits Name input -- will not be validated.\n   ** Warning ** ProcessScheduleInput: Schedule:Constant=\"ALWAYS ON CONTINUOUS\", Blank Schedule Type Limits Name input -- will not be validated.\n   ** Warning ** GetHTSurfaceData: Surfaces with interface to Ground found but no \"Ground Temperatures\" were input.\n   **   ~~~   ** Found first in surface=SURFACE 25\n   **   ~~~   ** Defaults, constant throughout the year of (18.0) will be used.\n   ** Warning ** CheckUsedConstructions: There are 8 nominally unused constructions in input.\n   **   ~~~   ** For explicit details on each unused construction, use Output:Diagnostics,DisplayExtraWarnings;\n   ** Warning ** Calculated design heating load for zone=STORY 1 CORE THERMAL ZONE is zero.\n   **   ~~~   ** Check Sizing:Zone and ZoneControl:Thermostat inputs.\n   ** Warning ** Calculated design heating load for zone=STORY 1 EAST PERIMETER THERMAL ZONE is zero.\n   **   ~~~   ** Check Sizing:Zone and ZoneControl:Thermostat inputs.\n   ** Warning ** Calculated design heating load for zone=STORY 1 NORTH PERIMETER THERMAL ZONE is zero.\n   **   ~~~   ** Check Sizing:Zone and ZoneControl:Thermostat inputs.\n   ** Warning ** Calculated design cooling load for zone=STORY 1 SOUTH PERIMETER THERMAL ZONE is zero.\n   **   ~~~   ** Check Sizing:Zone and ZoneControl:Thermostat inputs.\n   ************* Beginning System Sizing Calculations\n   **  Fatal  ** SimOAMixer: OutdoorAir:Mixer not found=\n   ...Summary of Errors that led to program termination:\n   ..... Reference severe error count=0\n   ..... Last severe error=\n   ************* Warning:  Node connection errors not checked - most system input has not been read (see previous warning).\n   ************* Fatal error -- final processing.  Program exited before simulations began.  See previous error messages.\n   *************\n   ************* ===== Recurring Error Summary =====\n   ************* The following recurring error messages occurred.\n   *************\n   *************  ** Warning ** Refrigeration:System chilling WarehouseCoils REFRIGERATION SYSTEM 1 - Refrigeration system unable to meet load of warehouse coils chilled by system ... continues by derating coil load\n   *************  **   ~~~   **   This error occurred 386 total times;\n   *************  **   ~~~   **   during Warmup 331 times;\n   *************  **   ~~~   **   during Sizing 386 times.\n   *************\n   *************  ** Warning ** Refrigeration:System chilling WarehouseCoils REFRIGERATION SYSTEM 2 - Refrigeration system unable to meet load of warehouse coils chilled by system ... continues by derating coil load\n   *************  **   ~~~   **   This error occurred 322 total times;\n   *************  **   ~~~   **   during Warmup 276 times;\n   *************  **   ~~~   **   during Sizing 322 times.\n   *************\n   *************  ** Warning ** Refrigeration:System chilling WarehouseCoils REFRIGERATION SYSTEM 3 - Refrigeration system unable to meet load of warehouse coils chilled by system ... continues by derating coil load\n   *************  **   ~~~   **   This error occurred 322 total times;\n   *************  **   ~~~   **   during Warmup 276 times;\n   *************  **   ~~~   **   during Sizing 322 times.\n   *************\n   *************\n   ************* ===== Final Error Summary =====\n   ************* The following error categories occurred.  Consider correcting or noting.\n   ************* Nominally Unused Constructions\n   ************* ..The nominally unused constructions warning is provided to alert you to potential conditions that can cause\n   ************* ..extra time during simulation. Each construction is calculated by the algorithm indicated in the HeatBalanceAlgorithm\n   ************* ..object. You may remove the constructions indicated (when you use the DisplayExtraWarnings option).\n   *************\n   ************* EnergyPlus Warmup Error Summary. During Warmup: 0 Warning; 0 Severe Errors.\n   ************* EnergyPlus Sizing Error Summary. During Sizing: 12 Warning; 0 Severe Errors.\n   ************* EnergyPlus Terminated--Fatal Error Detected. 1042 Warning; 0 Severe Errors; Elapsed Time=00hr 00min  0.43sec\n",
   "hash" : "D03DA7FF",
   "seed_file" : "in.osm",
   "started_at" : "20180205T201233Z",
   "steps" : [
      {
         "arguments" : {},
         "measure_dir_name" : "openstudio_results"
      }
   ],
   "updated_at" : "20180205T201244Z",
   "weather_file" : "../../weatherdata/USA_IL_Chicago-OHare.Intl.AP.725300_TMY3.epw"
}
