{
   "completed_at" : "20180208T115805Z",
   "completed_status" : "Fail",
   "current_step" : 0,
   "eplusout_err" : "Program Version,EnergyPlus, Version 8.6.0-198c6a3cff, YMD=2018.02.08 11:58,IDD_Version 8.6.0\n   ** Warning ** No Timestep object found.  Number of TimeSteps in Hour defaulted to 4.\n   ************* Beginning Zone Sizing Calculations\n   ** Warning ** ProcessScheduleInput: Schedule:Day:Interval=\"SCHEDULE DAY 2\", Blank Schedule Type Limits Name input -- will not be validated.\n   ** Warning ** ProcessScheduleInput: Schedule:Day:Interval=\"SCHEDULE DAY 3\", Blank Schedule Type Limits Name input -- will not be validated.\n   ** Warning ** ProcessScheduleInput: Schedule:Day:Interval=\"SCHEDULE DAY 4\", Blank Schedule Type Limits Name input -- will not be validated.\n   ** Warning ** ProcessScheduleInput: Schedule:Day:Interval=\"SCHEDULE DAY 5\", Blank Schedule Type Limits Name input -- will not be validated.\n   ** Warning ** ProcessScheduleInput: Schedule:Constant=\"ALWAYS OFF DISCRETE\", Blank Schedule Type Limits Name input -- will not be validated.\n   ** Warning ** ProcessScheduleInput: Schedule:Constant=\"ALWAYS ON CONTINUOUS\", Blank Schedule Type Limits Name input -- will not be validated.\n   ** Warning ** GetHTSurfaceData: Surfaces with interface to Ground found but no \"Ground Temperatures\" were input.\n   **   ~~~   ** Found first in surface=SURFACE 25\n   **   ~~~   ** Defaults, constant throughout the year of (18.0) will be used.\n   ** Warning ** CheckUsedConstructions: There are 8 nominally unused constructions in input.\n   **   ~~~   ** For explicit details on each unused construction, use Output:Diagnostics,DisplayExtraWarnings;\n   ** Severe  ** GetZoneEquipmentData1: ZoneHVAC:EquipmentList = STORY 1 EAST PERIMETER THERMAL ZONE EQUIPMENT LIST\n   **   ~~~   ** ...multiple assignments for Zone Equipment Cooling Sequence=2, must be 1-1 correspondence between sequence assignments and number of equipments.\n   ** Severe  ** GetZoneEquipmentData1: ZoneHVAC:EquipmentList = STORY 1 EAST PERIMETER THERMAL ZONE EQUIPMENT LIST\n   **   ~~~   ** ...multiple assignments for Zone Equipment Heating or No-Load Sequence=2, must be 1-1 correspondence between sequence assignments and number of equipments.\n   ** Warning ** GetZoneEquipmentData1: ZoneHVAC:EquipmentList = STORY 1 EAST PERIMETER THERMAL ZONE EQUIPMENT LIST\n   **   ~~~   ** ...zero assignments for Zone Equipment Cooling Sequence=3, apparent gap in sequence assignments in this equipment list.\n   ** Warning ** GetZoneEquipmentData1: ZoneHVAC:EquipmentList = STORY 1 EAST PERIMETER THERMAL ZONE EQUIPMENT LIST\n   **   ~~~   ** ...zero assignments for Zone Equipment Heating or No-Load Sequence=3, apparent gap in sequence assignments in this equipment list.\n   ** Severe  ** GetZoneEquipmentData1: ZoneHVAC:EquipmentList = STORY 1 WEST PERIMETER THERMAL ZONE EQUIPMENT LIST\n   **   ~~~   ** ...multiple assignments for Zone Equipment Cooling Sequence=2, must be 1-1 correspondence between sequence assignments and number of equipments.\n   ** Severe  ** GetZoneEquipmentData1: ZoneHVAC:EquipmentList = STORY 1 WEST PERIMETER THERMAL ZONE EQUIPMENT LIST\n   **   ~~~   ** ...multiple assignments for Zone Equipment Heating or No-Load Sequence=2, must be 1-1 correspondence between sequence assignments and number of equipments.\n   ** Warning ** GetZoneEquipmentData1: ZoneHVAC:EquipmentList = STORY 1 WEST PERIMETER THERMAL ZONE EQUIPMENT LIST\n   **   ~~~   ** ...zero assignments for Zone Equipment Cooling Sequence=4, apparent gap in sequence assignments in this equipment list.\n   ** Warning ** GetZoneEquipmentData1: ZoneHVAC:EquipmentList = STORY 1 WEST PERIMETER THERMAL ZONE EQUIPMENT LIST\n   **   ~~~   ** ...zero assignments for Zone Equipment Heating or No-Load Sequence=4, apparent gap in sequence assignments in this equipment list.\n   ** Warning ** GetZoneEquipmentData1: ZoneHVAC:EquipmentList, duplicate items NOT CHECKED due to previous errors.\n   **  Fatal  ** GetZoneEquipmentData1: Errors found in getting Zone Equipment input.\n   ...Summary of Errors that led to program termination:\n   ..... Reference severe error count=4\n   ..... Last severe error=GetZoneEquipmentData1: ZoneHVAC:EquipmentList = STORY 1 WEST PERIMETER THERMAL ZONE EQUIPMENT LIST\n   ************* Warning:  Node connection errors not checked - most system input has not been read (see previous warning).\n   ************* Fatal error -- final processing.  Program exited before simulations began.  See previous error messages.\n   *************\n   ************* ===== Final Error Summary =====\n   ************* The following error categories occurred.  Consider correcting or noting.\n   ************* Nominally Unused Constructions\n   ************* ..The nominally unused constructions warning is provided to alert you to potential conditions that can cause\n   ************* ..extra time during simulation. Each construction is calculated by the algorithm indicated in the HeatBalanceAlgorithm\n   ************* ..object. You may remove the constructions indicated (when you use the DisplayExtraWarnings option).\n   *************\n   ************* EnergyPlus Warmup Error Summary. During Warmup: 0 Warning; 0 Severe Errors.\n   ************* EnergyPlus Sizing Error Summary. During Sizing: 13 Warning; 4 Severe Errors.\n   ************* EnergyPlus Terminated--Fatal Error Detected. 14 Warning; 4 Severe Errors; Elapsed Time=00hr 00min  0.24sec\n",
   "seed_file" : "in.osm",
   "started_at" : "20180208T115754Z",
   "steps" : [
      {
         "arguments" : {},
         "measure_dir_name" : "openstudio_results"
      }
   ],
   "updated_at" : "20180208T115805Z",
   "weather_file" : "../../weatherdata/USA_IL_Chicago-OHare.Intl.AP.725300_TMY3.epw"
}
