{
  "completed_status": "Fail",
  "current_step": 0,
  "eplusout_err": [
    "Program Version,EnergyPlus, Version 8.6.0-198c6a3cff, IDD_Version 8.6.0",
    "   ** Warning ** No Timestep object found.  Number of TimeSteps in Hour defaulted to 4.",
    "   ************* Beginning Zone Sizing Calculations",
    "   ** Warning ** ProcessScheduleInput: Schedule:Day:Interval=\"SCHEDULE DAY 2\", Blank Schedule Type Limits Name input -- will not be validated.",
    "   ** Warning ** ProcessScheduleInput: Schedule:Day:Interval=\"SCHEDULE DAY 3\", Blank Schedule Type Limits Name input -- will not be validated.",
    "   ** Warning ** ProcessScheduleInput: Schedule:Day:Interval=\"SCHEDULE DAY 4\", Blank Schedule Type Limits Name input -- will not be validated.",
    "   ** Warning ** ProcessScheduleInput: Schedule:Day:Interval=\"SCHEDULE DAY 5\", Blank Schedule Type Limits Name input -- will not be validated.",
    "   ** Warning ** ProcessScheduleInput: Schedule:Constant=\"ALWAYS OFF DISCRETE\", Blank Schedule Type Limits Name input -- will not be validated.",
    "   ** Warning ** ProcessScheduleInput: Schedule:Constant=\"ALWAYS ON CONTINUOUS\", Blank Schedule Type Limits Name input -- will not be validated.",
    "   ** Warning ** GetHTSurfaceData: Surfaces with interface to Ground found but no \"Ground Temperatures\" were input.",
    "   **   ~~~   ** Found first in surface=SURFACE 25",
    "   **   ~~~   ** Defaults, constant throughout the year of (18.0) will be used.",
    "   ** Warning ** CheckUsedConstructions: There are 8 nominally unused constructions in input.",
    "   **   ~~~   ** For explicit details on each unused construction, use Output:Diagnostics,DisplayExtraWarnings;",
    "   ** Severe  ** GetZoneEquipmentData1: ZoneHVAC:EquipmentList = STORY 1 EAST PERIMETER THERMAL ZONE EQUIPMENT LIST",
    "   **   ~~~   ** ...multiple assignments for Zone Equipment Cooling Sequence=2, must be 1-1 correspondence between sequence assignments and number of equipments.",
    "   ** Severe  ** GetZoneEquipmentData1: ZoneHVAC:EquipmentList = STORY 1 EAST PERIMETER THERMAL ZONE EQUIPMENT LIST",
    "   **   ~~~   ** ...multiple assignments for Zone Equipment Heating or No-Load Sequence=2, must be 1-1 correspondence between sequence assignments and number of equipments.",
    "   ** Warning ** GetZoneEquipmentData1: ZoneHVAC:EquipmentList = STORY 1 EAST PERIMETER THERMAL ZONE EQUIPMENT LIST",
    "   **   ~~~   ** ...zero assignments for Zone Equipment Cooling Sequence=3, apparent gap in sequence assignments in this equipment list.",
    "   ** Warning ** GetZoneEquipmentData1: ZoneHVAC:EquipmentList = STORY 1 EAST PERIMETER THERMAL ZONE EQUIPMENT LIST",
    "   **   ~~~   ** ...zero assignments for Zone Equipment Heating or No-Load Sequence=3, apparent gap in sequence assignments in this equipment list.",
    "   ** Severe  ** GetZoneEquipmentData1: ZoneHVAC:EquipmentList = STORY 1 WEST PERIMETER THERMAL ZONE EQUIPMENT LIST",
    "   **   ~~~   ** ...multiple assignments for Zone Equipment Cooling Sequence=2, must be 1-1 correspondence between sequence assignments and number of equipments.",
    "   ** Severe  ** GetZoneEquipmentData1: ZoneHVAC:EquipmentList = STORY 1 WEST PERIMETER THERMAL ZONE EQUIPMENT LIST",
    "   **   ~~~   ** ...multiple assignments for Zone Equipment Heating or No-Load Sequence=2, must be 1-1 correspondence between sequence assignments and number of equipments.",
    "   ** Warning ** GetZoneEquipmentData1: ZoneHVAC:EquipmentList = STORY 1 WEST PERIMETER THERMAL ZONE EQUIPMENT LIST",
    "   **   ~~~   ** ...zero assignments for Zone Equipment Cooling Sequence=4, apparent gap in sequence assignments in this equipment list.",
    "   ** Warning ** GetZoneEquipmentData1: ZoneHVAC:EquipmentList = STORY 1 WEST PERIMETER THERMAL ZONE EQUIPMENT LIST",
    "   **   ~~~   ** ...zero assignments for Zone Equipment Heating or No-Load Sequence=4, apparent gap in sequence assignments in this equipment list.",
    "   ** Warning ** GetZoneEquipmentData1: ZoneHVAC:EquipmentList, duplicate items NOT CHECKED due to previous errors.",
    "   **  Fatal  ** GetZoneEquipmentData1: Errors found in getting Zone Equipment input.",
    "   ...Summary of Errors that led to program termination:",
    "   ..... Reference severe error count=4",
    "   ..... Last severe error=GetZoneEquipmentData1: ZoneHVAC:EquipmentList = STORY 1 WEST PERIMETER THERMAL ZONE EQUIPMENT LIST",
    "   ************* Warning:  Node connection errors not checked - most system input has not been read (see previous warning).",
    "   ************* Fatal error -- final processing.  Program exited before simulations began.  See previous error messages.",
    "   *************",
    "   ************* ===== Final Error Summary =====",
    "   ************* The following error categories occurred.  Consider correcting or noting.",
    "   ************* Nominally Unused Constructions",
    "   ************* ..The nominally unused constructions warning is provided to alert you to potential conditions that can cause",
    "   ************* ..extra time during simulation. Each construction is calculated by the algorithm indicated in the HeatBalanceAlgorithm",
    "   ************* ..object. You may remove the constructions indicated (when you use the DisplayExtraWarnings option).",
    "   *************",
    "   ************* EnergyPlus Warmup Error Summary. During Warmup: 0 Warning; 0 Severe Errors.",
    "   ************* EnergyPlus Sizing Error Summary. During Sizing: 13 Warning; 4 Severe Errors.",
    "   ************* EnergyPlus Terminated--Fatal Error Detected. 14 Warning; 4 Severe Errors; "
  ],
  "seed_file": "in.osm",
  "steps": [
    {
      "arguments": {
      },
      "measure_dir_name": "openstudio_results"
    }
  ],
  "weather_file": "../../weatherdata/USA_IL_Chicago-OHare.Intl.AP.725300_TMY3.epw"
}