{
  "completed_status": "Success",
  "current_step": 1,
  "eplusout_err": [
    "Program Version,EnergyPlus, Version 8.8.0-7c3bbe4830, IDD_Version 8.8.0",
    "   ************* IDF Context for following error/warning message:",
    "   ************* Note -- lines truncated at 300 characters, if necessary...",
    "   *************   1813 InternalMass,",
    "   ************* indicated Name=Merged {020b92ea-2804-484d-9ec2-31e3615bd46b} Above Ceiling Plenum Wall 3 - {8213a010-6b66-4283-b4e9-fc0275273b5f} Above Ceiling Plenum Wall 4",
    "   ************* Only last 1 lines before error line shown.....",
    "   *************   1814   Merged {020b92ea-2804-484d-9ec2-31e3615bd46b} Above Ceiling Plenum Wall 3 - {8213a010-6b66-4283-b4e9-fc0275273b5f} Above Ceiling Plenum Wall 4, !- Name",
    "   ** Warning ** IP: IDF line~1814 Alpha Argument length exceeds maximum, will be truncated=  Merged {020b92ea-2804-484d-9ec2-31e3615bd46b} Above Ceiling Plenum Wall 3 - {8213a010-6b66-4283-b4e9-fc0275273b5f} Above Ceiling Plenum Wall ",
    "   **   ~~~   ** Will be processed as Alpha=MERGED {020B92EA-2804-484D-9EC2-31E3615BD46B} ABOVE CEILING PLENUM WALL 3 - {8213A010-6B66-4283-B4E9-FC0275273B5F} ABOVE CEILING PLENUM WALL 4",
    "   ************* IDF Context for following error/warning message:",
    "   ************* Note -- lines truncated at 300 characters, if necessary...",
    "   *************   1825 InternalMass,",
    "   ************* indicated Name=Merged {36f9b5d1-1ca3-4d7d-930b-7c83ee7d3f70} Above Ceiling Plenum Wall 4 - {8213a010-6b66-4283-b4e9-fc0275273b5f} Above Ceiling Plenum Wall 2",
    "   ************* Only last 1 lines before error line shown.....",
    "   *************   1826   Merged {36f9b5d1-1ca3-4d7d-930b-7c83ee7d3f70} Above Ceiling Plenum Wall 4 - {8213a010-6b66-4283-b4e9-fc0275273b5f} Above Ceiling Plenum Wall 2, !- Name",
    "   ** Warning ** IP: IDF line~1826 Alpha Argument length exceeds maximum, will be truncated=  Merged {36f9b5d1-1ca3-4d7d-930b-7c83ee7d3f70} Above Ceiling Plenum Wall 4 - {8213a010-6b66-4283-b4e9-fc0275273b5f} Above Ceiling Plenum Wall ",
    "   **   ~~~   ** Will be processed as Alpha=MERGED {36F9B5D1-1CA3-4D7D-930B-7C83EE7D3F70} ABOVE CEILING PLENUM WALL 4 - {8213A010-6B66-4283-B4E9-FC0275273B5F} ABOVE CEILING PLENUM WALL 2",
    "   ************* IDF Context for following error/warning message:",
    "   ************* Note -- lines truncated at 300 characters, if necessary...",
    "   *************   2832 InternalMass,",
    "   ************* indicated Name=Merged Untitled Above Ceiling Plenum Wall 5 - {8c2da386-d921-44e9-923e-c76afda7d272} Above Ceiling Plenum Wall 5",
    "   ************* Only last 1 lines before error line shown.....",
    "   *************   2833   Merged Untitled Above Ceiling Plenum Wall 5 - {8c2da386-d921-44e9-923e-c76afda7d272} Above Ceiling Plenum Wall 5, !- Name",
    "   ** Warning ** IP: IDF line~2833 Alpha Argument length exceeds maximum, will be truncated=  Merged Untitled Above Ceiling Plenum Wall 5 - {8c2da386-d921-44e9-923e-c76afda7d272} Above Ceiling Plenum Wall ",
    "   **   ~~~   ** Will be processed as Alpha=MERGED UNTITLED ABOVE CEILING PLENUM WALL 5 - {8C2DA386-D921-44E9-923E-C76AFDA7D272} ABOVE CEILING PLENUM WALL 5",
    "   ************* IDF Context for following error/warning message:",
    "   ************* Note -- lines truncated at 300 characters, if necessary...",
    "   *************   2844 InternalMass,",
    "   ************* indicated Name=Merged {568b31be-6458-4fb6-80d1-87d160407ac4} Above Ceiling Plenum Wall 2 - {962a0770-a329-42bc-b2c7-4bb25b21d57f} Above Ceiling Plenum Wall 3",
    "   ************* Only last 1 lines before error line shown.....",
    "   *************   2845   Merged {568b31be-6458-4fb6-80d1-87d160407ac4} Above Ceiling Plenum Wall 2 - {962a0770-a329-42bc-b2c7-4bb25b21d57f} Above Ceiling Plenum Wall 3, !- Name",
    "   ** Warning ** IP: IDF line~2845 Alpha Argument length exceeds maximum, will be truncated=  Merged {568b31be-6458-4fb6-80d1-87d160407ac4} Above Ceiling Plenum Wall 2 - {962a0770-a329-42bc-b2c7-4bb25b21d57f} Above Ceiling Plenum Wall ",
    "   **   ~~~   ** Will be processed as Alpha=MERGED {568B31BE-6458-4FB6-80D1-87D160407AC4} ABOVE CEILING PLENUM WALL 2 - {962A0770-A329-42BC-B2C7-4BB25B21D57F} ABOVE CEILING PLENUM WALL 3",
    "   ************* IDF Context for following error/warning message:",
    "   ************* Note -- lines truncated at 300 characters, if necessary...",
    "   *************   2850 InternalMass,",
    "   ************* indicated Name=Merged {568b31be-6458-4fb6-80d1-87d160407ac4} Above Ceiling Plenum Wall 3 - {d9c46451-dfe9-4c5a-8985-c6ee45f5a58c} Above Ceiling Plenum Wall 2",
    "   ************* Only last 1 lines before error line shown.....",
    "   *************   2851   Merged {568b31be-6458-4fb6-80d1-87d160407ac4} Above Ceiling Plenum Wall 3 - {d9c46451-dfe9-4c5a-8985-c6ee45f5a58c} Above Ceiling Plenum Wall 2, !- Name",
    "   ** Warning ** IP: IDF line~2851 Alpha Argument length exceeds maximum, will be truncated=  Merged {568b31be-6458-4fb6-80d1-87d160407ac4} Above Ceiling Plenum Wall 3 - {d9c46451-dfe9-4c5a-8985-c6ee45f5a58c} Above Ceiling Plenum Wall ",
    "   **   ~~~   ** Will be processed as Alpha=MERGED {568B31BE-6458-4FB6-80D1-87D160407AC4} ABOVE CEILING PLENUM WALL 3 - {D9C46451-DFE9-4C5A-8985-C6EE45F5A58C} ABOVE CEILING PLENUM WALL 2",
    "   ************* IDF Context for following error/warning message:",
    "   ************* Note -- lines truncated at 300 characters, if necessary...",
    "   *************   2868 InternalMass,",
    "   ************* indicated Name=Merged {8c2da386-d921-44e9-923e-c76afda7d272} Above Ceiling Plenum Wall 2 - {d9c46451-dfe9-4c5a-8985-c6ee45f5a58c} Above Ceiling Plenum Wall 4",
    "   ************* Only last 1 lines before error line shown.....",
    "   *************   2869   Merged {8c2da386-d921-44e9-923e-c76afda7d272} Above Ceiling Plenum Wall 2 - {d9c46451-dfe9-4c5a-8985-c6ee45f5a58c} Above Ceiling Plenum Wall 4, !- Name",
    "   ** Warning ** IP: IDF line~2869 Alpha Argument length exceeds maximum, will be truncated=  Merged {8c2da386-d921-44e9-923e-c76afda7d272} Above Ceiling Plenum Wall 2 - {d9c46451-dfe9-4c5a-8985-c6ee45f5a58c} Above Ceiling Plenum Wall ",
    "   **   ~~~   ** Will be processed as Alpha=MERGED {8C2DA386-D921-44E9-923E-C76AFDA7D272} ABOVE CEILING PLENUM WALL 2 - {D9C46451-DFE9-4C5A-8985-C6EE45F5A58C} ABOVE CEILING PLENUM WALL 4",
    "   ************* IDF Context for following error/warning message:",
    "   ************* Note -- lines truncated at 300 characters, if necessary...",
    "   *************   2874 InternalMass,",
    "   ************* indicated Name=Merged {8c2da386-d921-44e9-923e-c76afda7d272} Above Ceiling Plenum Wall 3 - {962a0770-a329-42bc-b2c7-4bb25b21d57f} Above Ceiling Plenum Wall 1",
    "   ************* Only last 1 lines before error line shown.....",
    "   *************   2875   Merged {8c2da386-d921-44e9-923e-c76afda7d272} Above Ceiling Plenum Wall 3 - {962a0770-a329-42bc-b2c7-4bb25b21d57f} Above Ceiling Plenum Wall 1, !- Name",
    "   ** Warning ** IP: IDF line~2875 Alpha Argument length exceeds maximum, will be truncated=  Merged {8c2da386-d921-44e9-923e-c76afda7d272} Above Ceiling Plenum Wall 3 - {962a0770-a329-42bc-b2c7-4bb25b21d57f} Above Ceiling Plenum Wall ",
    "   **   ~~~   ** Will be processed as Alpha=MERGED {8C2DA386-D921-44E9-923E-C76AFDA7D272} ABOVE CEILING PLENUM WALL 3 - {962A0770-A329-42BC-B2C7-4BB25B21D57F} ABOVE CEILING PLENUM WALL 1",
    "   ************* IDF Context for following error/warning message:",
    "   ************* Note -- lines truncated at 300 characters, if necessary...",
    "   *************   2892 InternalMass,",
    "   ************* indicated Name=Merged {962a0770-a329-42bc-b2c7-4bb25b21d57f} Above Ceiling Plenum Wall 2 - {d9c46451-dfe9-4c5a-8985-c6ee45f5a58c} Above Ceiling Plenum Wall 3",
    "   ************* Only last 1 lines before error line shown.....",
    "   *************   2893   Merged {962a0770-a329-42bc-b2c7-4bb25b21d57f} Above Ceiling Plenum Wall 2 - {d9c46451-dfe9-4c5a-8985-c6ee45f5a58c} Above Ceiling Plenum Wall 3, !- Name",
    "   ** Warning ** IP: IDF line~2893 Alpha Argument length exceeds maximum, will be truncated=  Merged {962a0770-a329-42bc-b2c7-4bb25b21d57f} Above Ceiling Plenum Wall 2 - {d9c46451-dfe9-4c5a-8985-c6ee45f5a58c} Above Ceiling Plenum Wall ",
    "   **   ~~~   ** Will be processed as Alpha=MERGED {962A0770-A329-42BC-B2C7-4BB25B21D57F} ABOVE CEILING PLENUM WALL 2 - {D9C46451-DFE9-4C5A-8985-C6EE45F5A58C} ABOVE CEILING PLENUM WALL 3",
    "   ************* IDF Context for following error/warning message:",
    "   ************* Note -- lines truncated at 300 characters, if necessary...",
    "   *************   3743 InternalMass,",
    "   ************* indicated Name=Merged space5bc1e8e8-19e3-416d-923f-fb53482936e6 Above Ceiling Plenum Wall 4 - {d3a627a6-7075-42c2-843f-3c73e18c1b3e} Above Ceiling Plenum Wall 3",
    "   ************* Only last 1 lines before error line shown.....",
    "   *************   3744   Merged space5bc1e8e8-19e3-416d-923f-fb53482936e6 Above Ceiling Plenum Wall 4 - {d3a627a6-7075-42c2-843f-3c73e18c1b3e} Above Ceiling Plenum Wall 3, !- Name",
    "   ** Warning ** IP: IDF line~3744 Alpha Argument length exceeds maximum, will be truncated=  Merged space5bc1e8e8-19e3-416d-923f-fb53482936e6 Above Ceiling Plenum Wall 4 - {d3a627a6-7075-42c2-843f-3c73e18c1b3e} Above Ceiling Plenum Wall ",
    "   **   ~~~   ** Will be processed as Alpha=MERGED SPACE5BC1E8E8-19E3-416D-923F-FB53482936E6 ABOVE CEILING PLENUM WALL 4 - {D3A627A6-7075-42C2-843F-3C73E18C1B3E} ABOVE CEILING PLENUM WALL 3",
    "   ************* IDF Context for following error/warning message:",
    "   ************* Note -- lines truncated at 300 characters, if necessary...",
    "   *************   3749 InternalMass,",
    "   ************* indicated Name=Merged space5bc1e8e8-19e3-416d-923f-fb53482936e6 Wall 4 - {d3a627a6-7075-42c2-843f-3c73e18c1b3e} Wall 3",
    "   ************* Only last 1 lines before error line shown.....",
    "   *************   3750   Merged space5bc1e8e8-19e3-416d-923f-fb53482936e6 Wall 4 - {d3a627a6-7075-42c2-843f-3c73e18c1b3e} Wall 3, !- Name",
    "   ** Warning ** IP: IDF line~3750 Alpha Argument length exceeds maximum, will be truncated=  Merged space5bc1e8e8-19e3-416d-923f-fb53482936e6 Wall 4 - {d3a627a6-7075-42c2-843f-3c73e18c1b3e} Wall ",
    "   **   ~~~   ** Will be processed as Alpha=MERGED SPACE5BC1E8E8-19E3-416D-923F-FB53482936E6 WALL 4 - {D3A627A6-7075-42C2-843F-3C73E18C1B3E} WALL 3",
    "   ************* IDF Context for following error/warning message:",
    "   ************* Note -- lines truncated at 300 characters, if necessary...",
    "   *************   4332 InternalMass,",
    "   ************* indicated Name=Merged {706c7f75-6e88-4fbc-bd4f-86096d7d2dda} Above Ceiling Plenum Wall 1 - {b9aaa450-ffee-4b21-bad3-b1bdb51a8d71} Above Ceiling Plenum Wall 3",
    "   ************* Only last 1 lines before error line shown.....",
    "   *************   4333   Merged {706c7f75-6e88-4fbc-bd4f-86096d7d2dda} Above Ceiling Plenum Wall 1 - {b9aaa450-ffee-4b21-bad3-b1bdb51a8d71} Above Ceiling Plenum Wall 3, !- Name",
    "   ** Warning ** IP: IDF line~4333 Alpha Argument length exceeds maximum, will be truncated=  Merged {706c7f75-6e88-4fbc-bd4f-86096d7d2dda} Above Ceiling Plenum Wall 1 - {b9aaa450-ffee-4b21-bad3-b1bdb51a8d71} Above Ceiling Plenum Wall ",
    "   **   ~~~   ** Will be processed as Alpha=MERGED {706C7F75-6E88-4FBC-BD4F-86096D7D2DDA} ABOVE CEILING PLENUM WALL 1 - {B9AAA450-FFEE-4B21-BAD3-B1BDB51A8D71} ABOVE CEILING PLENUM WALL 3",
    "   ************* IDF Context for following error/warning message:",
    "   ************* Note -- lines truncated at 300 characters, if necessary...",
    "   *************   4338 InternalMass,",
    "   ************* indicated Name=Merged {706c7f75-6e88-4fbc-bd4f-86096d7d2dda} Above Ceiling Plenum Wall 2 - {e2baadb9-02d2-4f41-91e1-a8cbf9cd1d05} Above Ceiling Plenum Wall 1",
    "   ************* Only last 1 lines before error line shown.....",
    "   *************   4339   Merged {706c7f75-6e88-4fbc-bd4f-86096d7d2dda} Above Ceiling Plenum Wall 2 - {e2baadb9-02d2-4f41-91e1-a8cbf9cd1d05} Above Ceiling Plenum Wall 1, !- Name",
    "   ** Warning ** IP: IDF line~4339 Alpha Argument length exceeds maximum, will be truncated=  Merged {706c7f75-6e88-4fbc-bd4f-86096d7d2dda} Above Ceiling Plenum Wall 2 - {e2baadb9-02d2-4f41-91e1-a8cbf9cd1d05} Above Ceiling Plenum Wall ",
    "   **   ~~~   ** Will be processed as Alpha=MERGED {706C7F75-6E88-4FBC-BD4F-86096D7D2DDA} ABOVE CEILING PLENUM WALL 2 - {E2BAADB9-02D2-4F41-91E1-A8CBF9CD1D05} ABOVE CEILING PLENUM WALL 1",
    "   ************* IDF Context for following error/warning message:",
    "   ************* Note -- lines truncated at 300 characters, if necessary...",
    "   *************   4356 InternalMass,",
    "   ************* indicated Name=Merged {b9aaa450-ffee-4b21-bad3-b1bdb51a8d71} Above Ceiling Plenum Wall 2 - {e2baadb9-02d2-4f41-91e1-a8cbf9cd1d05} Above Ceiling Plenum Wall 2",
    "   ************* Only last 1 lines before error line shown.....",
    "   *************   4357   Merged {b9aaa450-ffee-4b21-bad3-b1bdb51a8d71} Above Ceiling Plenum Wall 2 - {e2baadb9-02d2-4f41-91e1-a8cbf9cd1d05} Above Ceiling Plenum Wall 2, !- Name",
    "   ** Warning ** IP: IDF line~4357 Alpha Argument length exceeds maximum, will be truncated=  Merged {b9aaa450-ffee-4b21-bad3-b1bdb51a8d71} Above Ceiling Plenum Wall 2 - {e2baadb9-02d2-4f41-91e1-a8cbf9cd1d05} Above Ceiling Plenum Wall ",
    "   **   ~~~   ** Will be processed as Alpha=MERGED {B9AAA450-FFEE-4B21-BAD3-B1BDB51A8D71} ABOVE CEILING PLENUM WALL 2 - {E2BAADB9-02D2-4F41-91E1-A8CBF9CD1D05} ABOVE CEILING PLENUM WALL 2",
    "   ************* IDF Context for following error/warning message:",
    "   ************* Note -- lines truncated at 300 characters, if necessary...",
    "   *************   4368 InternalMass,",
    "   ************* indicated Name=Merged {cf241714-132b-4382-91df-c563c7fe22e5} Above Ceiling Plenum Wall 4 - {e2baadb9-02d2-4f41-91e1-a8cbf9cd1d05} Above Ceiling Plenum Wall 3",
    "   ************* Only last 1 lines before error line shown.....",
    "   *************   4369   Merged {cf241714-132b-4382-91df-c563c7fe22e5} Above Ceiling Plenum Wall 4 - {e2baadb9-02d2-4f41-91e1-a8cbf9cd1d05} Above Ceiling Plenum Wall 3, !- Name",
    "   ** Warning ** IP: IDF line~4369 Alpha Argument length exceeds maximum, will be truncated=  Merged {cf241714-132b-4382-91df-c563c7fe22e5} Above Ceiling Plenum Wall 4 - {e2baadb9-02d2-4f41-91e1-a8cbf9cd1d05} Above Ceiling Plenum Wall ",
    "   **   ~~~   ** Will be processed as Alpha=MERGED {CF241714-132B-4382-91DF-C563C7FE22E5} ABOVE CEILING PLENUM WALL 4 - {E2BAADB9-02D2-4F41-91E1-A8CBF9CD1D05} ABOVE CEILING PLENUM WALL 3",
    "   ************* IDF Context for following error/warning message:",
    "   ************* Note -- lines truncated at 300 characters, if necessary...",
    "   *************   5700 InternalMass,",
    "   ************* indicated Name=Merged space7ddf2dd5-6bb7-4a79-bcd0-2ed655549407 Above Ceiling Plenum Wall 2 - {5a1372d7-f3bf-41b5-8fb0-8398cb53ccb6} Above Ceiling Plenum Wall 11",
    "   ************* Only last 1 lines before error line shown.....",
    "   *************   5701   Merged space7ddf2dd5-6bb7-4a79-bcd0-2ed655549407 Above Ceiling Plenum Wall 2 - {5a1372d7-f3bf-41b5-8fb0-8398cb53ccb6} Above Ceiling Plenum Wall 11, !- Name",
    "   ** Warning ** IP: IDF line~5701 Alpha Argument length exceeds maximum, will be truncated=  Merged space7ddf2dd5-6bb7-4a79-bcd0-2ed655549407 Above Ceiling Plenum Wall 2 - {5a1372d7-f3bf-41b5-8fb0-8398cb53ccb6} Above Ceiling Plenum Wall 1",
    "   **   ~~~   ** Will be processed as Alpha=MERGED SPACE7DDF2DD5-6BB7-4A79-BCD0-2ED655549407 ABOVE CEILING PLENUM WALL 2 - {5A1372D7-F3BF-41B5-8FB0-8398CB53CCB6} ABOVE CEILING PLENUM WALL 11",
    "   ************* IDF Context for following error/warning message:",
    "   ************* Note -- lines truncated at 300 characters, if necessary...",
    "   *************   5706 InternalMass,",
    "   ************* indicated Name=Merged space7ddf2dd5-6bb7-4a79-bcd0-2ed655549407 Above Ceiling Plenum Wall 3 - {f34f43a2-9f1d-479f-9825-8fca99f7a770} Above Ceiling Plenum Wall 4",
    "   ************* Only last 1 lines before error line shown.....",
    "   *************   5707   Merged space7ddf2dd5-6bb7-4a79-bcd0-2ed655549407 Above Ceiling Plenum Wall 3 - {f34f43a2-9f1d-479f-9825-8fca99f7a770} Above Ceiling Plenum Wall 4, !- Name",
    "   ** Warning ** IP: IDF line~5707 Alpha Argument length exceeds maximum, will be truncated=  Merged space7ddf2dd5-6bb7-4a79-bcd0-2ed655549407 Above Ceiling Plenum Wall 3 - {f34f43a2-9f1d-479f-9825-8fca99f7a770} Above Ceiling Plenum Wall ",
    "   **   ~~~   ** Will be processed as Alpha=MERGED SPACE7DDF2DD5-6BB7-4A79-BCD0-2ED655549407 ABOVE CEILING PLENUM WALL 3 - {F34F43A2-9F1D-479F-9825-8FCA99F7A770} ABOVE CEILING PLENUM WALL 4",
    "   ************* IDF Context for following error/warning message:",
    "   ************* Note -- lines truncated at 300 characters, if necessary...",
    "   *************   5712 InternalMass,",
    "   ************* indicated Name=Merged space7ddf2dd5-6bb7-4a79-bcd0-2ed655549407 Wall 2 - {5a1372d7-f3bf-41b5-8fb0-8398cb53ccb6} Wall 11",
    "   ************* Only last 1 lines before error line shown.....",
    "   *************   5713   Merged space7ddf2dd5-6bb7-4a79-bcd0-2ed655549407 Wall 2 - {5a1372d7-f3bf-41b5-8fb0-8398cb53ccb6} Wall 11, !- Name",
    "   ** Warning ** IP: IDF line~5713 Alpha Argument length exceeds maximum, will be truncated=  Merged space7ddf2dd5-6bb7-4a79-bcd0-2ed655549407 Wall 2 - {5a1372d7-f3bf-41b5-8fb0-8398cb53ccb6} Wall 1",
    "   **   ~~~   ** Will be processed as Alpha=MERGED SPACE7DDF2DD5-6BB7-4A79-BCD0-2ED655549407 WALL 2 - {5A1372D7-F3BF-41B5-8FB0-8398CB53CCB6} WALL 11",
    "   ************* IDF Context for following error/warning message:",
    "   ************* Note -- lines truncated at 300 characters, if necessary...",
    "   *************   5718 InternalMass,",
    "   ************* indicated Name=Merged space7ddf2dd5-6bb7-4a79-bcd0-2ed655549407 Wall 3 - {f34f43a2-9f1d-479f-9825-8fca99f7a770} Wall 4",
    "   ************* Only last 1 lines before error line shown.....",
    "   *************   5719   Merged space7ddf2dd5-6bb7-4a79-bcd0-2ed655549407 Wall 3 - {f34f43a2-9f1d-479f-9825-8fca99f7a770} Wall 4, !- Name",
    "   ** Warning ** IP: IDF line~5719 Alpha Argument length exceeds maximum, will be truncated=  Merged space7ddf2dd5-6bb7-4a79-bcd0-2ed655549407 Wall 3 - {f34f43a2-9f1d-479f-9825-8fca99f7a770} Wall ",
    "   **   ~~~   ** Will be processed as Alpha=MERGED SPACE7DDF2DD5-6BB7-4A79-BCD0-2ED655549407 WALL 3 - {F34F43A2-9F1D-479F-9825-8FCA99F7A770} WALL 4",
    "   ************* IDF Context for following error/warning message:",
    "   ************* Note -- lines truncated at 300 characters, if necessary...",
    "   *************   5838 InternalMass,",
    "   ************* indicated Name=Merged {10c67133-525c-42b9-90f2-9f290df5a3c0} Above Ceiling Plenum Wall 2 - {38ba8f04-8f1f-41df-971e-a2cd2724174a} Above Ceiling Plenum Wall 2",
    "   ************* Only last 1 lines before error line shown.....",
    "   *************   5839   Merged {10c67133-525c-42b9-90f2-9f290df5a3c0} Above Ceiling Plenum Wall 2 - {38ba8f04-8f1f-41df-971e-a2cd2724174a} Above Ceiling Plenum Wall 2, !- Name",
    "   ** Warning ** IP: IDF line~5839 Alpha Argument length exceeds maximum, will be truncated=  Merged {10c67133-525c-42b9-90f2-9f290df5a3c0} Above Ceiling Plenum Wall 2 - {38ba8f04-8f1f-41df-971e-a2cd2724174a} Above Ceiling Plenum Wall ",
    "   **   ~~~   ** Will be processed as Alpha=MERGED {10C67133-525C-42B9-90F2-9F290DF5A3C0} ABOVE CEILING PLENUM WALL 2 - {38BA8F04-8F1F-41DF-971E-A2CD2724174A} ABOVE CEILING PLENUM WALL 2",
    "   ************* IDF Context for following error/warning message:",
    "   ************* Note -- lines truncated at 300 characters, if necessary...",
    "   *************   5844 InternalMass,",
    "   ************* indicated Name=Merged {10c67133-525c-42b9-90f2-9f290df5a3c0} Above Ceiling Plenum Wall 3 - {f34f43a2-9f1d-479f-9825-8fca99f7a770} Above Ceiling Plenum Wall 2",
    "   ************* Only last 1 lines before error line shown.....",
    "   *************   5845   Merged {10c67133-525c-42b9-90f2-9f290df5a3c0} Above Ceiling Plenum Wall 3 - {f34f43a2-9f1d-479f-9825-8fca99f7a770} Above Ceiling Plenum Wall 2, !- Name",
    "   ** Warning ** IP: IDF line~5845 Alpha Argument length exceeds maximum, will be truncated=  Merged {10c67133-525c-42b9-90f2-9f290df5a3c0} Above Ceiling Plenum Wall 3 - {f34f43a2-9f1d-479f-9825-8fca99f7a770} Above Ceiling Plenum Wall ",
    "   **   ~~~   ** Will be processed as Alpha=MERGED {10C67133-525C-42B9-90F2-9F290DF5A3C0} ABOVE CEILING PLENUM WALL 3 - {F34F43A2-9F1D-479F-9825-8FCA99F7A770} ABOVE CEILING PLENUM WALL 2",
    "   ************* IDF Context for following error/warning message:",
    "   ************* Note -- lines truncated at 300 characters, if necessary...",
    "   *************   5850 InternalMass,",
    "   ************* indicated Name=Merged {10c67133-525c-42b9-90f2-9f290df5a3c0} Above Ceiling Plenum Wall 4 - {5a1372d7-f3bf-41b5-8fb0-8398cb53ccb6} Above Ceiling Plenum Wall 9",
    "   ************* Only last 1 lines before error line shown.....",
    "   *************   5851   Merged {10c67133-525c-42b9-90f2-9f290df5a3c0} Above Ceiling Plenum Wall 4 - {5a1372d7-f3bf-41b5-8fb0-8398cb53ccb6} Above Ceiling Plenum Wall 9, !- Name",
    "   ** Warning ** IP: IDF line~5851 Alpha Argument length exceeds maximum, will be truncated=  Merged {10c67133-525c-42b9-90f2-9f290df5a3c0} Above Ceiling Plenum Wall 4 - {5a1372d7-f3bf-41b5-8fb0-8398cb53ccb6} Above Ceiling Plenum Wall ",
    "   **   ~~~   ** Will be processed as Alpha=MERGED {10C67133-525C-42B9-90F2-9F290DF5A3C0} ABOVE CEILING PLENUM WALL 4 - {5A1372D7-F3BF-41B5-8FB0-8398CB53CCB6} ABOVE CEILING PLENUM WALL 9",
    "   ************* IDF Context for following error/warning message:",
    "   ************* Note -- lines truncated at 300 characters, if necessary...",
    "   *************   5874 InternalMass,",
    "   ************* indicated Name=Merged {38ba8f04-8f1f-41df-971e-a2cd2724174a} Above Ceiling Plenum Wall 1 - {f34f43a2-9f1d-479f-9825-8fca99f7a770} Above Ceiling Plenum Wall 3",
    "   ************* Only last 1 lines before error line shown.....",
    "   *************   5875   Merged {38ba8f04-8f1f-41df-971e-a2cd2724174a} Above Ceiling Plenum Wall 1 - {f34f43a2-9f1d-479f-9825-8fca99f7a770} Above Ceiling Plenum Wall 3, !- Name",
    "   ** Warning ** IP: IDF line~5875 Alpha Argument length exceeds maximum, will be truncated=  Merged {38ba8f04-8f1f-41df-971e-a2cd2724174a} Above Ceiling Plenum Wall 1 - {f34f43a2-9f1d-479f-9825-8fca99f7a770} Above Ceiling Plenum Wall ",
    "   **   ~~~   ** Will be processed as Alpha=MERGED {38BA8F04-8F1F-41DF-971E-A2CD2724174A} ABOVE CEILING PLENUM WALL 1 - {F34F43A2-9F1D-479F-9825-8FCA99F7A770} ABOVE CEILING PLENUM WALL 3",
    "   ************* IDF Context for following error/warning message:",
    "   ************* Note -- lines truncated at 300 characters, if necessary...",
    "   *************   5886 InternalMass,",
    "   ************* indicated Name=Merged {5a1372d7-f3bf-41b5-8fb0-8398cb53ccb6} Above Ceiling Plenum Wall 1 - {942c8b7b-dd5c-434e-9fa6-89f27c825ed8} Above Ceiling Plenum Wall 4",
    "   ************* Only last 1 lines before error line shown.....",
    "   *************   5887   Merged {5a1372d7-f3bf-41b5-8fb0-8398cb53ccb6} Above Ceiling Plenum Wall 1 - {942c8b7b-dd5c-434e-9fa6-89f27c825ed8} Above Ceiling Plenum Wall 4, !- Name",
    "   ** Warning ** IP: IDF line~5887 Alpha Argument length exceeds maximum, will be truncated=  Merged {5a1372d7-f3bf-41b5-8fb0-8398cb53ccb6} Above Ceiling Plenum Wall 1 - {942c8b7b-dd5c-434e-9fa6-89f27c825ed8} Above Ceiling Plenum Wall ",
    "   **   ~~~   ** Will be processed as Alpha=MERGED {5A1372D7-F3BF-41B5-8FB0-8398CB53CCB6} ABOVE CEILING PLENUM WALL 1 - {942C8B7B-DD5C-434E-9FA6-89F27C825ED8} ABOVE CEILING PLENUM WALL 4",
    "   ************* IDF Context for following error/warning message:",
    "   ************* Note -- lines truncated at 300 characters, if necessary...",
    "   *************   5892 InternalMass,",
    "   ************* indicated Name=Merged {5a1372d7-f3bf-41b5-8fb0-8398cb53ccb6} Above Ceiling Plenum Wall 10 - {f34f43a2-9f1d-479f-9825-8fca99f7a770} Above Ceiling Plenum Wall 1",
    "   ************* Only last 1 lines before error line shown.....",
    "   *************   5893   Merged {5a1372d7-f3bf-41b5-8fb0-8398cb53ccb6} Above Ceiling Plenum Wall 10 - {f34f43a2-9f1d-479f-9825-8fca99f7a770} Above Ceiling Plenum Wall 1, !- Name",
    "   ** Warning ** IP: IDF line~5893 Alpha Argument length exceeds maximum, will be truncated=  Merged {5a1372d7-f3bf-41b5-8fb0-8398cb53ccb6} Above Ceiling Plenum Wall 10 - {f34f43a2-9f1d-479f-9825-8fca99f7a770} Above Ceiling Plenum Wall ",
    "   **   ~~~   ** Will be processed as Alpha=MERGED {5A1372D7-F3BF-41B5-8FB0-8398CB53CCB6} ABOVE CEILING PLENUM WALL 10 - {F34F43A2-9F1D-479F-9825-8FCA99F7A770} ABOVE CEILING PLENUM WALL 1",
    "   ************* IDF Context for following error/warning message:",
    "   ************* Note -- lines truncated at 300 characters, if necessary...",
    "   *************   5904 InternalMass,",
    "   ************* indicated Name=Merged {5a1372d7-f3bf-41b5-8fb0-8398cb53ccb6} Wall 10 - {f34f43a2-9f1d-479f-9825-8fca99f7a770} Wall 1",
    "   ************* Only last 1 lines before error line shown.....",
    "   *************   5905   Merged {5a1372d7-f3bf-41b5-8fb0-8398cb53ccb6} Wall 10 - {f34f43a2-9f1d-479f-9825-8fca99f7a770} Wall 1, !- Name",
    "   ** Warning ** IP: IDF line~5905 Alpha Argument length exceeds maximum, will be truncated=  Merged {5a1372d7-f3bf-41b5-8fb0-8398cb53ccb6} Wall 10 - {f34f43a2-9f1d-479f-9825-8fca99f7a770} Wall ",
    "   **   ~~~   ** Will be processed as Alpha=MERGED {5A1372D7-F3BF-41B5-8FB0-8398CB53CCB6} WALL 10 - {F34F43A2-9F1D-479F-9825-8FCA99F7A770} WALL 1",
    "   ************* IDF Context for following error/warning message:",
    "   ************* Note -- lines truncated at 300 characters, if necessary...",
    "   *************   5910 InternalMass,",
    "   ************* indicated Name=Merged {5a39dd34-6da3-4639-8184-08fa76573947} Above Ceiling Plenum Wall 3 - {62fde8a7-c793-42bc-bf26-32ada4458486} Above Ceiling Plenum Wall 1",
    "   ************* Only last 1 lines before error line shown.....",
    "   *************   5911   Merged {5a39dd34-6da3-4639-8184-08fa76573947} Above Ceiling Plenum Wall 3 - {62fde8a7-c793-42bc-bf26-32ada4458486} Above Ceiling Plenum Wall 1, !- Name",
    "   ** Warning ** IP: IDF line~5911 Alpha Argument length exceeds maximum, will be truncated=  Merged {5a39dd34-6da3-4639-8184-08fa76573947} Above Ceiling Plenum Wall 3 - {62fde8a7-c793-42bc-bf26-32ada4458486} Above Ceiling Plenum Wall ",
    "   **   ~~~   ** Will be processed as Alpha=MERGED {5A39DD34-6DA3-4639-8184-08FA76573947} ABOVE CEILING PLENUM WALL 3 - {62FDE8A7-C793-42BC-BF26-32ADA4458486} ABOVE CEILING PLENUM WALL 1",
    "   ************* IDF Context for following error/warning message:",
    "   ************* Note -- lines truncated at 300 characters, if necessary...",
    "   *************   5916 InternalMass,",
    "   ************* indicated Name=Merged {5a39dd34-6da3-4639-8184-08fa76573947} Above Ceiling Plenum Wall 4 - {942c8b7b-dd5c-434e-9fa6-89f27c825ed8} Above Ceiling Plenum Wall 2",
    "   ************* Only last 1 lines before error line shown.....",
    "   *************   5917   Merged {5a39dd34-6da3-4639-8184-08fa76573947} Above Ceiling Plenum Wall 4 - {942c8b7b-dd5c-434e-9fa6-89f27c825ed8} Above Ceiling Plenum Wall 2, !- Name",
    "   ** Warning ** IP: IDF line~5917 Alpha Argument length exceeds maximum, will be truncated=  Merged {5a39dd34-6da3-4639-8184-08fa76573947} Above Ceiling Plenum Wall 4 - {942c8b7b-dd5c-434e-9fa6-89f27c825ed8} Above Ceiling Plenum Wall ",
    "   **   ~~~   ** Will be processed as Alpha=MERGED {5A39DD34-6DA3-4639-8184-08FA76573947} ABOVE CEILING PLENUM WALL 4 - {942C8B7B-DD5C-434E-9FA6-89F27C825ED8} ABOVE CEILING PLENUM WALL 2",
    "   ************* IDF Context for following error/warning message:",
    "   ************* Note -- lines truncated at 300 characters, if necessary...",
    "   *************   5922 InternalMass,",
    "   ************* indicated Name=Merged {5a39dd34-6da3-4639-8184-08fa76573947} Above Ceiling Plenum Wall 5 - {942c8b7b-dd5c-434e-9fa6-89f27c825ed8} Above Ceiling Plenum Wall 1",
    "   ************* Only last 1 lines before error line shown.....",
    "   *************   5923   Merged {5a39dd34-6da3-4639-8184-08fa76573947} Above Ceiling Plenum Wall 5 - {942c8b7b-dd5c-434e-9fa6-89f27c825ed8} Above Ceiling Plenum Wall 1, !- Name",
    "   ** Warning ** IP: IDF line~5923 Alpha Argument length exceeds maximum, will be truncated=  Merged {5a39dd34-6da3-4639-8184-08fa76573947} Above Ceiling Plenum Wall 5 - {942c8b7b-dd5c-434e-9fa6-89f27c825ed8} Above Ceiling Plenum Wall ",
    "   **   ~~~   ** Will be processed as Alpha=MERGED {5A39DD34-6DA3-4639-8184-08FA76573947} ABOVE CEILING PLENUM WALL 5 - {942C8B7B-DD5C-434E-9FA6-89F27C825ED8} ABOVE CEILING PLENUM WALL 1",
    "   ************* IDF Context for following error/warning message:",
    "   ************* Note -- lines truncated at 300 characters, if necessary...",
    "   *************   5928 InternalMass,",
    "   ************* indicated Name=Merged {62fde8a7-c793-42bc-bf26-32ada4458486} Above Ceiling Plenum Wall 4 - {942c8b7b-dd5c-434e-9fa6-89f27c825ed8} Above Ceiling Plenum Wall 3",
    "   ************* Only last 1 lines before error line shown.....",
    "   *************   5929   Merged {62fde8a7-c793-42bc-bf26-32ada4458486} Above Ceiling Plenum Wall 4 - {942c8b7b-dd5c-434e-9fa6-89f27c825ed8} Above Ceiling Plenum Wall 3, !- Name",
    "   ** Warning ** IP: IDF line~5929 Alpha Argument length exceeds maximum, will be truncated=  Merged {62fde8a7-c793-42bc-bf26-32ada4458486} Above Ceiling Plenum Wall 4 - {942c8b7b-dd5c-434e-9fa6-89f27c825ed8} Above Ceiling Plenum Wall ",
    "   **   ~~~   ** Will be processed as Alpha=MERGED {62FDE8A7-C793-42BC-BF26-32ADA4458486} ABOVE CEILING PLENUM WALL 4 - {942C8B7B-DD5C-434E-9FA6-89F27C825ED8} ABOVE CEILING PLENUM WALL 3",
    "   ** Warning ** ProcessScheduleInput: DecodeHHMMField, Invalid \"until\" field value is not a multiple of the minutes for each timestep: 13:15",
    "   **   ~~~   ** Other errors may result. Occurred in Day Schedule={C91BCD47-B74C-4185-8112-6E8F3EA36C7A}",
    "   ** Warning ** ProcessScheduleInput: DecodeHHMMField, Invalid \"until\" field value is not a multiple of the minutes for each timestep: 11:15",
    "   **   ~~~   ** Other errors may result. Occurred in Day Schedule={EA8EAC61-91CB-4169-A85B-628AE72FEF83}",
    "   ** Warning ** ProcessScheduleInput: DecodeHHMMField, Invalid \"until\" field value is not a multiple of the minutes for each timestep: 12:45",
    "   **   ~~~   ** Other errors may result. Occurred in Day Schedule={EA8EAC61-91CB-4169-A85B-628AE72FEF83}",
    "   ** Warning ** ProcessScheduleInput: Schedule:Day:Interval=\"ALL WEEKDAYS\", , One or more values are not integer as required by Schedule Type Limits Name=HVAC OPERATION SCHEDULE TYPE LIMITS",
    "   ** Warning ** ProcessScheduleInput: Schedule:Day:Interval=\"ALL WEEKENDS\", , One or more values are not integer as required by Schedule Type Limits Name=HVAC OPERATION SCHEDULE TYPE LIMITS",
    "   ** Warning ** ProcessScheduleInput: Schedule:Day:Interval=\"BLDG LVL COOLING  SUMMER DESIGN DAY\", Blank Schedule Type Limits Name input -- will not be validated.",
    "   ** Warning ** ProcessScheduleInput: Schedule:Day:Interval=\"BLDG LVL COOLING  WINTER DESIGN DAY\", Blank Schedule Type Limits Name input -- will not be validated.",
    "   ** Warning ** ProcessScheduleInput: Schedule:Day:Interval=\"BLDG LVL EQUIP SUMMER DESIGN DAY\", Blank Schedule Type Limits Name input -- will not be validated.",
    "   ** Warning ** ProcessScheduleInput: Schedule:Day:Interval=\"BLDG LVL EQUIP WINTER DESIGN DAY\", Blank Schedule Type Limits Name input -- will not be validated.",
    "   ** Warning ** ProcessScheduleInput: Schedule:Day:Interval=\"BLDG LVL HEAT SUMMER DESIGN DAY\", Blank Schedule Type Limits Name input -- will not be validated.",
    "   ** Warning ** ProcessScheduleInput: Schedule:Day:Interval=\"BLDG LVL HEAT WINTER DESIGN DAY\", Blank Schedule Type Limits Name input -- will not be validated.",
    "   ** Warning ** ProcessScheduleInput: Schedule:Day:Interval=\"BLDG LVL LIGHTS SUMMER DESIGN DAY\", Blank Schedule Type Limits Name input -- will not be validated.",
    "   ** Warning ** ProcessScheduleInput: Schedule:Day:Interval=\"BLDG LVL LIGHTS WINTER DESIGN DAY\", Blank Schedule Type Limits Name input -- will not be validated.",
    "   ** Warning ** ProcessScheduleInput: Schedule:Day:Interval=\"BLDG LVL OCC SUMMER DESIGN DAY\", Blank Schedule Type Limits Name input -- will not be validated.",
    "   ** Warning ** ProcessScheduleInput: Schedule:Day:Interval=\"BLDG LVL OCC WINTER DESIGN DAY\", Blank Schedule Type Limits Name input -- will not be validated.",
    "   ** Warning ** ProcessScheduleInput: Schedule:Day:Interval=\"BLDG LVL WATER SUMMER DESIGN DAY\", Blank Schedule Type Limits Name input -- will not be validated.",
    "   ** Warning ** ProcessScheduleInput: Schedule:Day:Interval=\"BLDG LVL WATER WINTER DESIGN DAY\", Blank Schedule Type Limits Name input -- will not be validated.",
    "   ** Warning ** ProcessScheduleInput: Schedule:Day:Interval=\"HVAC SUMMER DESIGN DAY\", Blank Schedule Type Limits Name input -- will not be validated.",
    "   ** Warning ** ProcessScheduleInput: Schedule:Day:Interval=\"HVAC WINTER DESIGN DAY\", Blank Schedule Type Limits Name input -- will not be validated.",
    "   ** Warning ** ProcessScheduleInput: DecodeHHMMField, Invalid \"until\" field value is not a multiple of the minutes for each timestep: 05:45",
    "   **   ~~~   ** Other errors may result. Occurred in Day Schedule={3A3039AC-E293-47FA-A1B7-19526D1C2712}",
    "   ** Warning ** ProcessScheduleInput: Schedule:Day:Interval=\"{4219E9AD-D1C1-44F4-8DCC-37B4BB89A07E}\", , One or more values are not integer as required by Schedule Type Limits Name=HVAC OPERATION SCHEDULE TYPE LIMITS",
    "   ** Warning ** ProcessScheduleInput: Schedule:Day:Interval=\"{5B4B1F8F-1B2D-48BF-A038-9825937E7F3B}\", , One or more values are not integer as required by Schedule Type Limits Name=HVAC OPERATION SCHEDULE TYPE LIMITS",
    "   ** Warning ** ProcessScheduleInput: DecodeHHMMField, Invalid \"until\" field value is not a multiple of the minutes for each timestep: 11:45",
    "   **   ~~~   ** Other errors may result. Occurred in Day Schedule={74A107D8-1237-48D0-9BBC-9A9F3D627154}",
    "   ** Warning ** ProcessScheduleInput: DecodeHHMMField, Invalid \"until\" field value is not a multiple of the minutes for each timestep: 13:15",
    "   **   ~~~   ** Other errors may result. Occurred in Day Schedule={74A107D8-1237-48D0-9BBC-9A9F3D627154}",
    "   ** Warning ** ProcessScheduleInput: Schedule:Day:Interval=\"{80F3CE3C-3C5A-4D01-A6D9-9D4AA4F2C57E}\", , One or more values are not integer as required by Schedule Type Limits Name=HVAC OPERATION SCHEDULE TYPE LIMITS",
    "   ** Warning ** ProcessScheduleInput: Schedule:Day:Interval=\"{95CF6E04-AE51-4676-A184-D695E6CFB3B7}\", , One or more values are not integer as required by Schedule Type Limits Name=HVAC OPERATION SCHEDULE TYPE LIMITS",
    "   ** Warning ** ProcessScheduleInput: DecodeHHMMField, Invalid \"until\" field value is not a multiple of the minutes for each timestep: 17:45",
    "   **   ~~~   ** Other errors may result. Occurred in Day Schedule={97181300-ACD5-46D8-A35E-D82CE4C006D9}",
    "   ** Warning ** ProcessScheduleInput: DecodeHHMMField, Invalid \"until\" field value is not a multiple of the minutes for each timestep: 06:15",
    "   **   ~~~   ** Other errors may result. Occurred in Day Schedule={A8A739B5-AE53-4C5A-A142-ADF0AD18159F}",
    "   ** Warning ** ProcessScheduleInput: DecodeHHMMField, Invalid \"until\" field value is not a multiple of the minutes for each timestep: 07:15",
    "   **   ~~~   ** Other errors may result. Occurred in Day Schedule={AEF473AC-B6F4-43B0-A0BA-4DF2015E861A}",
    "   ** Warning ** ProcessScheduleInput: DecodeHHMMField, Invalid \"until\" field value is not a multiple of the minutes for each timestep: 06:15",
    "   **   ~~~   ** Other errors may result. Occurred in Day Schedule={B223AC58-240E-4156-8E7A-8341C23084F2}",
    "   ** Warning ** ProcessScheduleInput: DecodeHHMMField, Invalid \"until\" field value is not a multiple of the minutes for each timestep: 18:15",
    "   **   ~~~   ** Other errors may result. Occurred in Day Schedule={B223AC58-240E-4156-8E7A-8341C23084F2}",
    "   ** Warning ** ProcessScheduleInput: DecodeHHMMField, Invalid \"until\" field value is not a multiple of the minutes for each timestep: 11:15",
    "   **   ~~~   ** Other errors may result. Occurred in Day Schedule={B8347DC3-FFB7-4CC9-91DE-0604F28221A9}",
    "   ** Warning ** ProcessScheduleInput: DecodeHHMMField, Invalid \"until\" field value is not a multiple of the minutes for each timestep: 12:45",
    "   **   ~~~   ** Other errors may result. Occurred in Day Schedule={B8347DC3-FFB7-4CC9-91DE-0604F28221A9}",
    "   ** Warning ** ProcessScheduleInput: DecodeHHMMField, Invalid \"until\" field value is not a multiple of the minutes for each timestep: 06:15",
    "   **   ~~~   ** Other errors may result. Occurred in Day Schedule={DDB53B4B-4CDB-4A21-98D3-F593A57E5E87}",
    "   ** Warning ** ProcessScheduleInput: DecodeHHMMField, Invalid \"until\" field value is not a multiple of the minutes for each timestep: 18:15",
    "   **   ~~~   ** Other errors may result. Occurred in Day Schedule={DDB53B4B-4CDB-4A21-98D3-F593A57E5E87}",
    "   ** Warning ** ProcessScheduleInput: DecodeHHMMField, Invalid \"until\" field value is not a multiple of the minutes for each timestep: 05:45",
    "   **   ~~~   ** Other errors may result. Occurred in Day Schedule={E21428D0-ECE7-4338-AC7F-3D33184E2653}",
    "   ** Warning ** ProcessScheduleInput: Schedule:Constant=\"ALWAYS OFF DISCRETE\", Blank Schedule Type Limits Name input -- will not be validated.",
    "   ** Warning ** ProcessScheduleInput: Schedule:Constant=\"ALWAYS ON CONTINUOUS\", Blank Schedule Type Limits Name input -- will not be validated.",
    "   ************* Beginning Zone Sizing Calculations",
    "   ** Warning ** Weather file location will be used rather than entered (IDF) Location object.",
    "   **   ~~~   ** ..Location object=SITE",
    "   **   ~~~   ** ..Weather File Location=Chicago Ohare Intl Ap IL USA TMY3 WMO#=725300",
    "   **   ~~~   ** ..due to location differences, Latitude difference=[3.01] degrees, Longitude difference=[16.90] degrees.",
    "   **   ~~~   ** ..Time Zone difference=[1.0] hour(s), Elevation difference=[89.97] percent, [1802.00] meters.",
    "   ** Warning ** SetUpDesignDay: Entered DesignDay Barometric Pressure=81198 differs by more than 10% from Standard Barometric Pressure=98934.",
    "   **   ~~~   ** ...occurs in DesignDay=DENVER CENTENNIAL  GOLDEN   N ANN CLG .4% CONDNS DB=>MWB, Standard Pressure (based on elevation) will be used.",
    "   ** Warning ** GetHTSurfaceData: Surfaces with interface to Ground found but no \"Ground Temperatures\" were input.",
    "   **   ~~~   ** Found first in surface={B724477B-1B9C-42D5-8445-E7CF444E2DE5} FLOOR",
    "   **   ~~~   ** Defaults, constant throughout the year of (18.0) will be used.",
    "   ** Warning ** CheckUsedConstructions: There are 11 nominally unused constructions in input.",
    "   **   ~~~   ** For explicit details on each unused construction, use Output:Diagnostics,DisplayExtraWarnings;",
    "   ** Warning ** SetUpDesignDay: Entered DesignDay Barometric Pressure=81198 differs by more than 10% from Standard Barometric Pressure=98934.",
    "   **   ~~~   ** ...occurs in DesignDay=DENVER CENTENNIAL  GOLDEN   N ANN CLG .4% CONDNS DP=>MDB, Standard Pressure (based on elevation) will be used.",
    "   ** Warning ** SetUpDesignDay: Entered DesignDay Barometric Pressure=81198 differs by more than 10% from Standard Barometric Pressure=98934.",
    "   **   ~~~   ** ...occurs in DesignDay=DENVER CENTENNIAL  GOLDEN   N ANN CLG .4% CONDNS ENTH=>MDB, Standard Pressure (based on elevation) will be used.",
    "   ** Warning ** SetUpDesignDay: Entered DesignDay Barometric Pressure=81198 differs by more than 10% from Standard Barometric Pressure=98934.",
    "   **   ~~~   ** ...occurs in DesignDay=DENVER CENTENNIAL  GOLDEN   N ANN CLG .4% CONDNS WB=>MDB, Standard Pressure (based on elevation) will be used.",
    "   ** Warning ** SetUpDesignDay: Entered DesignDay Barometric Pressure=81198 differs by more than 10% from Standard Barometric Pressure=98934.",
    "   **   ~~~   ** ...occurs in DesignDay=DENVER CENTENNIAL  GOLDEN   N ANN HTG 99.6% CONDNS DB, Standard Pressure (based on elevation) will be used.",
    "   ** Warning ** SetUpDesignDay: Entered DesignDay Barometric Pressure=81198 differs by more than 10% from Standard Barometric Pressure=98934.",
    "   **   ~~~   ** ...occurs in DesignDay=DENVER CENTENNIAL  GOLDEN   N ANN HTG WIND 99.6% CONDNS WS=>MCDB, Standard Pressure (based on elevation) will be used.",
    "   ** Warning ** SetUpDesignDay: Entered DesignDay Barometric Pressure=81198 differs by more than 10% from Standard Barometric Pressure=98934.",
    "   **   ~~~   ** ...occurs in DesignDay=DENVER CENTENNIAL  GOLDEN   N ANN HUM_N 99.6% CONDNS DP=>MCDB, Standard Pressure (based on elevation) will be used.",
    "   ** Warning ** Calculated design cooling load for zone=WELDING SHOP is zero.",
    "   **   ~~~   ** Check Sizing:Zone and ZoneControl:Thermostat inputs.",
    "   ** Warning ** Calculated design cooling load for zone=WOOD SHOP EAST is zero.",
    "   **   ~~~   ** Check Sizing:Zone and ZoneControl:Thermostat inputs.",
    "   ** Warning ** Calculated design cooling load for zone=WOOD SHOP WEST is zero.",
    "   **   ~~~   ** Check Sizing:Zone and ZoneControl:Thermostat inputs.",
    "   ************* Beginning System Sizing Calculations",
    "   ************* Beginning Plant Sizing Calculations",
    "   ** Warning ** SizeWaterCoil: Coil=\"COIL COOLING WATER 1\", Cooling Coil has leaving humidity ratio > entering humidity ratio.",
    "   **   ~~~   **     Wair,in =  4.343600E-003",
    "   **   ~~~   **     Wair,out = 8.478624E-003",
    "   **   ~~~   ** ....coil leaving humidity ratio will be reset to:",
    "   **   ~~~   **     Wair,out = 4.343600E-003",
    "   ** Warning ** GetElectricEIRChillerInput: Chiller:Electric:EIR=\"CHILLER ELECTRIC EIR 1\"",
    "   **   ~~~   ** Adding OutdoorAir:Node=CHILLER ELECTRIC EIR 1 INLET NODE FOR CONDENSER",
    "   ** Warning ** GetElectricEIRChillerInput: Chiller:Electric:EIR=\"CHILLER ELECTRIC EIR 1\"",
    "   **   ~~~   ** Energy input ratio as a function of temperature curve output is not equal to 1.0 (+ or - 10%) at reference conditions.",
    "   **   ~~~   ** Curve output at reference conditions = 0.851",
    "   ** Warning ** Missing temperature setpoint for LeavingSetpointModulated mode Boiler named BOILER HOT WATER 1",
    "   **   ~~~   **   A temperature setpoint is needed at the outlet node of a boiler in variable flow mode, use a SetpointManager",
    "   **   ~~~   **   The overall loop setpoint will be assumed for Boiler. The simulation continues ... ",
    "   ** Warning ** SetpointManager:MixedAir=\"NODE 20 OS DEFAULT SPM\"",
    "   **   ~~~   ** ...setpoint node conflicts with another setpoint manager.",
    "   **   ~~~   ** ...conflicting setpoint manager = SetpointManager:MixedAir:\"SETPOINT MANAGER MIXED AIR 3\"",
    "   **   ~~~   ** ...conflicting node name = NODE 20",
    "   **   ~~~   ** ...control type variable = Temperature",
    "   ** Warning ** SetpointManager:MixedAir=\"SETPOINT MANAGER MIXED AIR 2\"",
    "   **   ~~~   ** ...setpoint node conflicts with another setpoint manager.",
    "   **   ~~~   ** ...conflicting setpoint manager = SetpointManager:MixedAir:\"NODE 21 OS DEFAULT SPM\"",
    "   **   ~~~   ** ...conflicting node name = NODE 21",
    "   **   ~~~   ** ...control type variable = Temperature",
    "   ** Warning ** SetpointManager:MixedAir=\"NODE 22 OS DEFAULT SPM\"",
    "   **   ~~~   ** ...setpoint node conflicts with another setpoint manager.",
    "   **   ~~~   ** ...conflicting setpoint manager = SetpointManager:MixedAir:\"SETPOINT MANAGER MIXED AIR 1\"",
    "   **   ~~~   ** ...conflicting node name = NODE 22",
    "   **   ~~~   ** ...control type variable = Temperature",
    "   ** Warning ** SetpointManager:MixedAir=\"SETPOINT MANAGER MIXED AIR 5\"",
    "   **   ~~~   ** ...setpoint node conflicts with another setpoint manager.",
    "   **   ~~~   ** ...conflicting setpoint manager = SetpointManager:MixedAir:\"NODE 71 OS DEFAULT SPM\"",
    "   **   ~~~   ** ...conflicting node name = NODE 71",
    "   **   ~~~   ** ...control type variable = Temperature",
    "   ** Warning ** SetpointManager:MixedAir=\"SETPOINT MANAGER MIXED AIR 6\"",
    "   **   ~~~   ** ...setpoint node conflicts with another setpoint manager.",
    "   **   ~~~   ** ...conflicting setpoint manager = SetpointManager:MixedAir:\"NODE 72 OS DEFAULT SPM\"",
    "   **   ~~~   ** ...conflicting node name = NODE 72",
    "   **   ~~~   ** ...control type variable = Temperature",
    "   ** Warning ** SetpointManager:MixedAir=\"SETPOINT MANAGER MIXED AIR 4\"",
    "   **   ~~~   ** ...setpoint node conflicts with another setpoint manager.",
    "   **   ~~~   ** ...conflicting setpoint manager = SetpointManager:MixedAir:\"NODE 52 OS DEFAULT SPM\"",
    "   **   ~~~   ** ...conflicting node name = NODE 52",
    "   **   ~~~   ** ...control type variable = Temperature",
    "   ** Warning ** Output:Meter: invalid Key Name=\"DISTRICTCOOLING:FACILITY\" - not found.",
    "   ** Warning ** Output:Meter: invalid Key Name=\"DISTRICTHEATING:FACILITY\" - not found.",
    "   ** Warning ** Output:Meter:MeterFileOnly requested for \"Electricity:Facility\" (TimeStep), already on \"Output:Meter\". Will report to both eplusout.eso and eplusout.mtr",
    "   ************* Testing Individual Branch Integrity",
    "   ************* All Branches passed integrity testing",
    "   ************* Testing Individual Supply Air Path Integrity",
    "   ************* All Supply Air Paths passed integrity testing",
    "   ************* Testing Individual Return Air Path Integrity",
    "   ************* All Return Air Paths passed integrity testing",
    "   ************* No node connection errors were found.",
    "   ************* Beginning Simulation",
    "   ** Warning ** CalcDoe2DXCoil: Coil:Cooling:DX:SingleSpeed \"OS:COIL:COOLING:DX:SINGLESPEED 1\" - Full load outlet air dry-bulb temperature < 2C. This indicates the possibility of coil frost/freeze. Outlet temperature = -4.18 C.",
    "   **   ~~~   **  ...Occurrence info = DENVER CENTENNIAL  GOLDEN   N ANN CLG .4% CONDNS DB=>MWB, 07/21 07:50 - 07:55",
    "   **   ~~~   ** ... Possible reasons for low outlet air dry-bulb temperatures are: This DX coil",
    "   **   ~~~   **    1) may have a low inlet air dry-bulb temperature. Inlet air temperature = 21.960 C.",
    "   **   ~~~   **    2) may have a low air flow rate per watt of cooling capacity. Check inputs.",
    "   **   ~~~   **    3) is used as part of a HX assisted cooling coil which uses a high sensible effectiveness. Check inputs.",
    "   ** Warning ** The resource referenced by LifeCycleCost:UsePriceEscalation= \"U.S. AVG  COMMERCIAL-ELECTRICITY\" has no energy cost. ",
    "   **   ~~~   ** ... It is likely that the wrong resource is used. The resource should match the meter used in Utility:Tariff.",
    "   ** Warning ** The resource referenced by LifeCycleCost:UsePriceEscalation= \"U.S. AVG  COMMERCIAL-DISTILLATE OIL\" has no energy cost. ",
    "   **   ~~~   ** ... It is likely that the wrong resource is used. The resource should match the meter used in Utility:Tariff.",
    "   ** Warning ** The resource referenced by LifeCycleCost:UsePriceEscalation= \"U.S. AVG  COMMERCIAL-RESIDUAL OIL\" has no energy cost. ",
    "   **   ~~~   ** ... It is likely that the wrong resource is used. The resource should match the meter used in Utility:Tariff.",
    "   ** Warning ** The resource referenced by LifeCycleCost:UsePriceEscalation= \"U.S. AVG  COMMERCIAL-NATURAL GAS\" has no energy cost. ",
    "   **   ~~~   ** ... It is likely that the wrong resource is used. The resource should match the meter used in Utility:Tariff.",
    "   ** Warning ** The resource referenced by LifeCycleCost:UsePriceEscalation= \"U.S. AVG  COMMERCIAL-COAL\" has no energy cost. ",
    "   **   ~~~   ** ... It is likely that the wrong resource is used. The resource should match the meter used in Utility:Tariff.",
    "   ************* Simulation Error Summary *************",
    "   ************* There are 15 unused schedules in input.",
    "   ************* There are 20 unused week schedules in input.",
    "   ************* There are 53 unused day schedules in input.",
    "   ************* Use Output:Diagnostics,DisplayUnusedSchedules; to see them.",
    "   *************",
    "   ************* ===== Recurring Error Summary =====",
    "   ************* The following recurring error messages occurred.",
    "   *************",
    "   *************  ** Warning ** CalcDoe2DXCoil: Coil:Cooling:DX:SingleSpeed=\"OS:COIL:COOLING:DX:SINGLESPEED 1\" - Full load outlet temperature indicates a possibility of frost/freeze error continues. Outlet air temperature statistics follow:",
    "   *************  **   ~~~   **   This error occurred 8829 total times;",
    "   *************  **   ~~~   **   during Warmup 0 times;",
    "   *************  **   ~~~   **   during Sizing 0 times.",
    "   *************  **   ~~~   **   Max=1.999271  Min=-9.00007",
    "   *************",
    "   *************",
    "   ************* ===== Final Error Summary =====",
    "   ************* The following error categories occurred.  Consider correcting or noting.",
    "   ************* Nominally Unused Constructions",
    "   ************* ..The nominally unused constructions warning is provided to alert you to potential conditions that can cause",
    "   ************* ..extra time during simulation. Each construction is calculated by the algorithm indicated in the HeatBalanceAlgorithm",
    "   ************* ..object. You may remove the constructions indicated (when you use the DisplayExtraWarnings option).",
    "   *************",
    "   ************* EnergyPlus Warmup Error Summary. During Warmup: 0 Warning; 0 Severe Errors.",
    "   ************* EnergyPlus Sizing Error Summary. During Sizing: 51 Warning; 0 Severe Errors.",
    "   ************* EnergyPlus Completed Successfully-- 8927 Warning; 0 Severe Errors; "
  ],
  "seed_file": "in.osm",
  "steps": [
    {
      "arguments": {
      },
      "measure_dir_name": "openstudio_results",
      "result": {
        "measure_class_name": "OpenStudioResults",
        "measure_display_name": "OpenStudio Results",
        "measure_name": "openstudio_results",
        "measure_taxonomy": "Reporting.QAQC",
        "measure_type": "ReportingMeasure",
        "measure_uid": "a25386cd-60e4-46bc-8b11-c755f379d916",
        "measure_version_id": "5b8e57e8-830a-43ae-90d4-a41d97698d95",
        "measure_version_modified": "20171219T161835Z",
        "measure_xml_checksum": "557BF06F",
        "stderr": "",
        "stdout": "",
        "step_errors": [

        ],
        "step_final_condition": "Generated report with 21 sections to ./report.html.",
        "step_info": [

        ],
        "step_initial_condition": "Gathering data from EnergyPlus SQL file and OSM model.",
        "step_result": "Success",
        "step_values": [
          {
            "name": "building_summary_section",
            "value": true
          },
          {
            "name": "annual_overview_section",
            "value": true
          },
          {
            "name": "monthly_overview_section",
            "value": true
          },
          {
            "name": "utility_bills_rates_section",
            "value": true
          },
          {
            "name": "envelope_section_section",
            "value": true
          },
          {
            "name": "space_type_breakdown_section",
            "value": true
          },
          {
            "name": "space_type_details_section",
            "value": true
          },
          {
            "name": "interior_lighting_section",
            "value": true
          },
          {
            "name": "plug_loads_section",
            "value": true
          },
          {
            "name": "exterior_light_section",
            "value": true
          },
          {
            "name": "water_use_section",
            "value": true
          },
          {
            "name": "hvac_load_profile",
            "value": true
          },
          {
            "name": "zone_condition_section",
            "value": true
          },
          {
            "name": "zone_summary_section",
            "value": true
          },
          {
            "name": "zone_equipment_detail_section",
            "value": true
          },
          {
            "name": "air_loops_detail_section",
            "value": true
          },
          {
            "name": "plant_loops_detail_section",
            "value": true
          },
          {
            "name": "outdoor_air_section",
            "value": true
          },
          {
            "name": "cost_summary_section",
            "value": true
          },
          {
            "name": "source_energy_section",
            "value": true
          },
          {
            "name": "schedules_overview_section",
            "value": true
          },
          {
            "display_name": "Building",
            "name": "building_name",
            "value": "building_name"
          },
          {
            "name": "total_site_energy",
            "units": "kBtu",
            "value": 5806090.72
          },
          {
            "name": "net_site_energy",
            "units": "kBtu",
            "value": 5806090.72
          },
          {
            "name": "total_building_area",
            "units": "ft^2",
            "value": 32575.79
          },
          {
            "name": "total_site_eui",
            "units": "kBtu/ft^2",
            "value": 178.23
          },
          {
            "name": "eui",
            "units": "kBtu/ft^2",
            "value": 178.23
          },
          {
            "name": "unmet_hours_during_heating",
            "units": "hr",
            "value": 4659.67
          },
          {
            "name": "unmet_hours_during_cooling",
            "units": "hr",
            "value": 2974.5
          },
          {
            "name": "unmet_hours_during_occupied_heating",
            "units": "hr",
            "value": 1651
          },
          {
            "name": "unmet_hours_during_occupied_cooling",
            "units": "hr",
            "value": 1513
          },
          {
            "name": "unmet_hours_tolerance_heating",
            "units": "F",
            "value": 0.36
          },
          {
            "name": "unmet_hours_tolerance_cooling",
            "units": "F",
            "value": 0.36
          },
          {
            "name": "end_use_heating",
            "units": "kBtu",
            "value": 3464802.35
          },
          {
            "name": "end_use_cooling",
            "units": "kBtu",
            "value": 372245.7
          },
          {
            "name": "end_use_interior_lighting",
            "units": "kBtu",
            "value": 400955.08
          },
          {
            "name": "end_use_exterior_lighting",
            "units": "kBtu",
            "value": 0
          },
          {
            "name": "end_use_interior_equipment",
            "units": "kBtu",
            "value": 488903.03
          },
          {
            "name": "end_use_exterior_equipment",
            "units": "kBtu",
            "value": 0
          },
          {
            "name": "end_use_fans",
            "units": "kBtu",
            "value": 546587.18
          },
          {
            "name": "end_use_pumps",
            "units": "kBtu",
            "value": 138343.39
          },
          {
            "name": "end_use_heat_rejection",
            "units": "kBtu",
            "value": 0
          },
          {
            "name": "end_use_humidification",
            "units": "kBtu",
            "value": 0
          },
          {
            "name": "end_use_heat_recovery",
            "units": "kBtu",
            "value": 0
          },
          {
            "name": "end_use_water_systems",
            "units": "kBtu",
            "value": 394254.01
          },
          {
            "name": "end_use_refrigeration",
            "units": "kBtu",
            "value": 0
          },
          {
            "name": "end_use_generators",
            "units": "kBtu",
            "value": 0
          },
          {
            "name": "fuel_electricity",
            "units": "kBtu",
            "value": 1947034.36
          },
          {
            "name": "fuel_natural_gas",
            "units": "kBtu",
            "value": 3859056.36
          },
          {
            "name": "fuel_additional_fuel",
            "units": "kBtu",
            "value": 0
          },
          {
            "name": "fuel_district_cooling",
            "units": "kBtu",
            "value": 0
          },
          {
            "name": "fuel_district_heating",
            "units": "kBtu",
            "value": 0
          },
          {
            "name": "end_use_electricity_heating",
            "units": "kWh",
            "value": 0
          },
          {
            "name": "end_use_electricity_cooling",
            "units": "kWh",
            "value": 109094.44
          },
          {
            "name": "end_use_electricity_interior_lighting",
            "units": "kWh",
            "value": 117508.33
          },
          {
            "name": "end_use_electricity_exterior_lighting",
            "units": "kWh",
            "value": 0
          },
          {
            "name": "end_use_electricity_interior_equipment",
            "units": "kWh",
            "value": 143283.33
          },
          {
            "name": "end_use_electricity_exterior_equipment",
            "units": "kWh",
            "value": 0
          },
          {
            "name": "end_use_electricity_fans",
            "units": "kWh",
            "value": 160188.89
          },
          {
            "name": "end_use_electricity_pumps",
            "units": "kWh",
            "value": 40544.44
          },
          {
            "name": "end_use_electricity_heat_rejection",
            "units": "kWh",
            "value": 0
          },
          {
            "name": "end_use_electricity_humidification",
            "units": "kWh",
            "value": 0
          },
          {
            "name": "end_use_electricity_heat_recovery",
            "units": "kWh",
            "value": 0
          },
          {
            "name": "end_use_electricity_water_systems",
            "units": "kWh",
            "value": 0
          },
          {
            "name": "end_use_electricity_refrigeration",
            "units": "kWh",
            "value": 0
          },
          {
            "name": "end_use_electricity_generators",
            "units": "kWh",
            "value": 0
          },
          {
            "name": "end_use_natural_gas_heating",
            "units": "therms",
            "value": 34654.71
          },
          {
            "name": "end_use_natural_gas_cooling",
            "units": "therms",
            "value": 0
          },
          {
            "name": "end_use_natural_gas_interior_lighting",
            "units": "therms",
            "value": 0
          },
          {
            "name": "end_use_natural_gas_exterior_lighting",
            "units": "therms",
            "value": 0
          },
          {
            "name": "end_use_natural_gas_interior_equipment",
            "units": "therms",
            "value": 0
          },
          {
            "name": "end_use_natural_gas_exterior_equipment",
            "units": "therms",
            "value": 0
          },
          {
            "name": "end_use_natural_gas_fans",
            "units": "therms",
            "value": 0
          },
          {
            "name": "end_use_natural_gas_pumps",
            "units": "therms",
            "value": 0
          },
          {
            "name": "end_use_natural_gas_heat_rejection",
            "units": "therms",
            "value": 0
          },
          {
            "name": "end_use_natural_gas_humidification",
            "units": "therms",
            "value": 0
          },
          {
            "name": "end_use_natural_gas_heat_recovery",
            "units": "therms",
            "value": 0
          },
          {
            "name": "end_use_natural_gas_water_systems",
            "units": "therms",
            "value": 3943.3
          },
          {
            "name": "end_use_natural_gas_refrigeration",
            "units": "therms",
            "value": 0
          },
          {
            "name": "end_use_natural_gas_generators",
            "units": "therms",
            "value": 0
          },
          {
            "name": "electricity_heating_ip",
            "units": "kWh",
            "value": 0
          },
          {
            "name": "electricity_cooling_ip",
            "units": "kWh",
            "value": 109094.59
          },
          {
            "name": "electricity_interior_lighting_ip",
            "units": "kWh",
            "value": 117508.67
          },
          {
            "name": "electricity_exterior_lighting_ip",
            "units": "kWh",
            "value": 0
          },
          {
            "name": "electricity_interior_equipment_ip",
            "units": "kWh",
            "value": 143283.69
          },
          {
            "name": "electricity_exterior_equipment_ip",
            "units": "kWh",
            "value": 0
          },
          {
            "name": "electricity_fans_ip",
            "units": "kWh",
            "value": 160189.78
          },
          {
            "name": "electricity_pumps_ip",
            "units": "kWh",
            "value": 40543.72
          },
          {
            "name": "electricity_heat_rejection_ip",
            "units": "kWh",
            "value": 0
          },
          {
            "name": "electricity_humidification_ip",
            "units": "kWh",
            "value": 0
          },
          {
            "name": "electricity_heat_recovery_ip",
            "units": "kWh",
            "value": 0
          },
          {
            "name": "electricity_water_systems_ip",
            "units": "kWh",
            "value": 0
          },
          {
            "name": "electricity_refrigeration_ip",
            "units": "kWh",
            "value": 0
          },
          {
            "name": "electricity_generators_ip",
            "units": "kWh",
            "value": 0
          },
          {
            "name": "electricity_ip",
            "units": "kWh",
            "value": 570620.45
          },
          {
            "name": "natural_gas_heating_ip",
            "units": "MBtu",
            "value": 3464.8
          },
          {
            "name": "natural_gas_cooling_ip",
            "units": "MBtu",
            "value": 0
          },
          {
            "name": "natural_gas_interior_lighting_ip",
            "units": "MBtu",
            "value": 0
          },
          {
            "name": "natural_gas_exterior_lighting_ip",
            "units": "MBtu",
            "value": 0
          },
          {
            "name": "natural_gas_interior_equipment_ip",
            "units": "MBtu",
            "value": 0
          },
          {
            "name": "natural_gas_exterior_equipment_ip",
            "units": "MBtu",
            "value": 0
          },
          {
            "name": "natural_gas_fans_ip",
            "units": "MBtu",
            "value": 0
          },
          {
            "name": "natural_gas_pumps_ip",
            "units": "MBtu",
            "value": 0
          },
          {
            "name": "natural_gas_heat_rejection_ip",
            "units": "MBtu",
            "value": 0
          },
          {
            "name": "natural_gas_humidification_ip",
            "units": "MBtu",
            "value": 0
          },
          {
            "name": "natural_gas_heat_recovery_ip",
            "units": "MBtu",
            "value": 0
          },
          {
            "name": "natural_gas_water_systems_ip",
            "units": "MBtu",
            "value": 394.26
          },
          {
            "name": "natural_gas_refrigeration_ip",
            "units": "MBtu",
            "value": 0
          },
          {
            "name": "natural_gas_generators_ip",
            "units": "MBtu",
            "value": 0
          },
          {
            "name": "natural_gas_ip",
            "units": "MBtu",
            "value": 3859.06
          },
          {
            "name": "additional_fuel_heating_ip",
            "units": "MBtu",
            "value": 0
          },
          {
            "name": "additional_fuel_cooling_ip",
            "units": "MBtu",
            "value": 0
          },
          {
            "name": "additional_fuel_interior_lighting_ip",
            "units": "MBtu",
            "value": 0
          },
          {
            "name": "additional_fuel_exterior_lighting_ip",
            "units": "MBtu",
            "value": 0
          },
          {
            "name": "additional_fuel_interior_equipment_ip",
            "units": "MBtu",
            "value": 0
          },
          {
            "name": "additional_fuel_exterior_equipment_ip",
            "units": "MBtu",
            "value": 0
          },
          {
            "name": "additional_fuel_fans_ip",
            "units": "MBtu",
            "value": 0
          },
          {
            "name": "additional_fuel_pumps_ip",
            "units": "MBtu",
            "value": 0
          },
          {
            "name": "additional_fuel_heat_rejection_ip",
            "units": "MBtu",
            "value": 0
          },
          {
            "name": "additional_fuel_humidification_ip",
            "units": "MBtu",
            "value": 0
          },
          {
            "name": "additional_fuel_heat_recovery_ip",
            "units": "MBtu",
            "value": 0
          },
          {
            "name": "additional_fuel_water_systems_ip",
            "units": "MBtu",
            "value": 0
          },
          {
            "name": "additional_fuel_refrigeration_ip",
            "units": "MBtu",
            "value": 0
          },
          {
            "name": "additional_fuel_generators_ip",
            "units": "MBtu",
            "value": 0
          },
          {
            "name": "additional_fuel_ip",
            "units": "MBtu",
            "value": 0
          },
          {
            "name": "district_cooling_heating_ip",
            "units": "MBtu",
            "value": 0
          },
          {
            "name": "district_cooling_cooling_ip",
            "units": "MBtu",
            "value": 0
          },
          {
            "name": "district_cooling_interior_lighting_ip",
            "units": "MBtu",
            "value": 0
          },
          {
            "name": "district_cooling_exterior_lighting_ip",
            "units": "MBtu",
            "value": 0
          },
          {
            "name": "district_cooling_interior_equipment_ip",
            "units": "MBtu",
            "value": 0
          },
          {
            "name": "district_cooling_exterior_equipment_ip",
            "units": "MBtu",
            "value": 0
          },
          {
            "name": "district_cooling_fans_ip",
            "units": "MBtu",
            "value": 0
          },
          {
            "name": "district_cooling_pumps_ip",
            "units": "MBtu",
            "value": 0
          },
          {
            "name": "district_cooling_heat_rejection_ip",
            "units": "MBtu",
            "value": 0
          },
          {
            "name": "district_cooling_humidification_ip",
            "units": "MBtu",
            "value": 0
          },
          {
            "name": "district_cooling_heat_recovery_ip",
            "units": "MBtu",
            "value": 0
          },
          {
            "name": "district_cooling_water_systems_ip",
            "units": "MBtu",
            "value": 0
          },
          {
            "name": "district_cooling_refrigeration_ip",
            "units": "MBtu",
            "value": 0
          },
          {
            "name": "district_cooling_generators_ip",
            "units": "MBtu",
            "value": 0
          },
          {
            "name": "district_cooling_ip",
            "units": "MBtu",
            "value": 0
          },
          {
            "name": "district_heating_heating_ip",
            "units": "MBtu",
            "value": 0
          },
          {
            "name": "district_heating_cooling_ip",
            "units": "MBtu",
            "value": 0
          },
          {
            "name": "district_heating_interior_lighting_ip",
            "units": "MBtu",
            "value": 0
          },
          {
            "name": "district_heating_exterior_lighting_ip",
            "units": "MBtu",
            "value": 0
          },
          {
            "name": "district_heating_interior_equipment_ip",
            "units": "MBtu",
            "value": 0
          },
          {
            "name": "district_heating_exterior_equipment_ip",
            "units": "MBtu",
            "value": 0
          },
          {
            "name": "district_heating_fans_ip",
            "units": "MBtu",
            "value": 0
          },
          {
            "name": "district_heating_pumps_ip",
            "units": "MBtu",
            "value": 0
          },
          {
            "name": "district_heating_heat_rejection_ip",
            "units": "MBtu",
            "value": 0
          },
          {
            "name": "district_heating_humidification_ip",
            "units": "MBtu",
            "value": 0
          },
          {
            "name": "district_heating_heat_recovery_ip",
            "units": "MBtu",
            "value": 0
          },
          {
            "name": "district_heating_water_systems_ip",
            "units": "MBtu",
            "value": 0
          },
          {
            "name": "district_heating_refrigeration_ip",
            "units": "MBtu",
            "value": 0
          },
          {
            "name": "district_heating_generators_ip",
            "units": "MBtu",
            "value": 0
          },
          {
            "name": "district_heating_ip",
            "units": "MBtu",
            "value": 0
          },
          {
            "name": "water_heating_ip",
            "units": "MBtu",
            "value": 0
          },
          {
            "name": "water_cooling_ip",
            "units": "MBtu",
            "value": 0
          },
          {
            "name": "water_interior_lighting_ip",
            "units": "MBtu",
            "value": 0
          },
          {
            "name": "water_exterior_lighting_ip",
            "units": "MBtu",
            "value": 0
          },
          {
            "name": "water_interior_equipment_ip",
            "units": "MBtu",
            "value": 0
          },
          {
            "name": "water_exterior_equipment_ip",
            "units": "MBtu",
            "value": 0
          },
          {
            "name": "water_fans_ip",
            "units": "MBtu",
            "value": 0
          },
          {
            "name": "water_pumps_ip",
            "units": "MBtu",
            "value": 0
          },
          {
            "name": "water_heat_rejection_ip",
            "units": "MBtu",
            "value": 0
          },
          {
            "name": "water_humidification_ip",
            "units": "MBtu",
            "value": 0
          },
          {
            "name": "water_heat_recovery_ip",
            "units": "MBtu",
            "value": 0
          },
          {
            "name": "water_water_systems_ip",
            "units": "MBtu",
            "value": 0
          },
          {
            "name": "water_refrigeration_ip",
            "units": "MBtu",
            "value": 0
          },
          {
            "name": "water_generators_ip",
            "units": "MBtu",
            "value": 0
          },
          {
            "name": "water_ip",
            "units": "MBtu",
            "value": 0
          },
          {
            "name": "ext_roof",
            "units": "ft^2",
            "value": 32575.84
          },
          {
            "name": "ext_wall_1",
            "units": "ft^2",
            "value": 12313.01
          },
          {
            "name": "window",
            "units": "ft^2",
            "value": 5948.93
          },
          {
            "name": "gross_window_wall_ratio",
            "units": "%",
            "value": 32.58
          },
          {
            "name": "gross_window_wall_ratio_conditioned",
            "units": "%",
            "value": 32.58
          },
          {
            "name": "skylight_roof_ratio",
            "units": "%",
            "value": 0
          },
          {
            "name": "space_type_bathroom",
            "units": "ft^2",
            "value": 327.33
          },
          {
            "name": "space_type_conference_room",
            "units": "ft^2",
            "value": 2170.19
          },
          {
            "name": "space_type_conference_room_1",
            "units": "ft^2",
            "value": 1213.63
          },
          {
            "name": "space_type_corridor",
            "units": "ft^2",
            "value": 1658.03
          },
          {
            "name": "space_type_locker_room",
            "units": "ft^2",
            "value": 398.59
          },
          {
            "name": "space_type_mechanical_room",
            "units": "ft^2",
            "value": 61.22
          },
          {
            "name": "space_type_open_office",
            "units": "ft^2",
            "value": 5927.45
          },
          {
            "name": "space_type_open_office_1",
            "units": "ft^2",
            "value": 2198.7
          },
          {
            "name": "space_type_small_office",
            "units": "ft^2",
            "value": 5345.94
          },
          {
            "name": "space_type_small_office_1",
            "units": "ft^2",
            "value": 3982.95
          },
          {
            "name": "space_type_welding_shop",
            "units": "ft^2",
            "value": 2483.24
          },
          {
            "name": "space_type_wood_shop",
            "units": "ft^2",
            "value": 6808.59
          },
          {
            "name": "exterior_lighting_total_power",
            "units": "W",
            "value": 0
          },
          {
            "name": "exterior_lighting_total_consumption",
            "units": "kWh",
            "value": 1701597.22
          },
          {
            "name": "bathroom_sink",
            "units": "gal/min",
            "value": 1.0
          },
          {
            "name": "water_use_equipment_1",
            "units": "gal/min",
            "value": 1.0
          },
          {
            "name": "water_use_equipment_2",
            "units": "gal/min",
            "value": 1.0
          },
          {
            "name": "water_use_equipment_3",
            "units": "gal/min",
            "value": 1.0
          },
          {
            "name": "water_use_equipment_4",
            "units": "gal/min",
            "value": 1.0
          },
          {
            "name": "water_use_equipment_5",
            "units": "gal/min",
            "value": 1.0
          },
          {
            "name": "water_use_equipment_6",
            "units": "gal/min",
            "value": 1.0
          },
          {
            "name": "water_use_equipment_7",
            "units": "gal/min",
            "value": 1.0
          },
          {
            "name": "inflation_approach",
            "value": "Constant Dollar"
          },
          {
            "name": "analysis_length",
            "units": "yrs",
            "value": 25
          },
          {
            "name": "annual_peak_electric_demand",
            "units": "kW",
            "value": 276.03
          },
          {
            "name": "first_year_capital_cost",
            "units": "$",
            "value": 0
          },
          {
            "name": "annual_utility_cost",
            "units": "$",
            "value": 0
          },
          {
            "name": "total_lifecycle_cost",
            "units": "$",
            "value": 0
          }
        ],
        "step_warnings": [

        ]
      }
    }
  ],
  "weather_file": "../../weatherdata/USA_IL_Chicago-OHare.Intl.AP.725300_TMY3.epw"
}