{
  "completed_status": "Success",
  "current_step": 1,
  "eplusout_err": [
    "Program Version,EnergyPlus, Version 22.1.0-ed759b17ee, ",
    "   ************* Beginning Zone Sizing Calculations",
    "   ** Warning ** ProcessScheduleInput: Schedule:Day:Interval=\"SCHEDULE DAY 2\", Blank Schedule Type Limits Name input -- will not be validated.",
    "   ** Warning ** ProcessScheduleInput: Schedule:Day:Interval=\"SCHEDULE DAY 3\", Blank Schedule Type Limits Name input -- will not be validated.",
    "   ** Warning ** ProcessScheduleInput: Schedule:Day:Interval=\"SCHEDULE DAY 4\", Blank Schedule Type Limits Name input -- will not be validated.",
    "   ** Warning ** ProcessScheduleInput: Schedule:Day:Interval=\"SCHEDULE DAY 5\", Blank Schedule Type Limits Name input -- will not be validated.",
    "   ** Warning ** ProcessScheduleInput: Schedule:Day:Interval=\"SCHEDULE DAY 7\", Blank Schedule Type Limits Name input -- will not be validated.",
    "   ** Warning ** ProcessScheduleInput: Schedule:Year=\"SCHEDULE RULESET 3\", Blank Schedule Type Limits Name input -- will not be validated.",
    "   ** Warning ** ProcessScheduleInput: Schedule:Constant=\"ALWAYS ON CONTINUOUS\", Blank Schedule Type Limits Name input -- will not be validated.",
    "   ** Warning ** GetHTSurfaceData: Surfaces with interface to Ground found but no \"Ground Temperatures\" were input.",
    "   **   ~~~   ** Found first in surface=STORY 1 CORE SPACE EXTERIOR GROUND FLOOR",
    "   **   ~~~   ** Defaults, constant throughout the year of (18.0) will be used.",
    "   ** Warning ** CheckUsedConstructions: There are 7 nominally unused constructions in input.",
    "   **   ~~~   ** For explicit details on each unused construction, use Output:Diagnostics,DisplayExtraWarnings;",
    "   ** Warning ** ThermalStorage:ChilledWater:Stratified = THERMAL STORAGE CHILLED WATER STRATIFIED 1:  More Additional Loss Coefficients were entered than the number of nodes; extra coefficients will not be used",
    "   ** Warning ** GetSimpleAirModelInputs: ZoneInfiltration:DesignFlowRate=\"STORY 1 CORE THERMAL ZONE BASELINE MODEL INFILTRATION\", Design Flow Rate Calculation Method specifies Flow per Exterior Surface Area, but Exterior Surface Area = 0.  0 Infiltration will result.",
    "   ** Warning ** GetSimpleAirModelInputs: ZoneInfiltration:DesignFlowRate=\"STORY 2 CORE THERMAL ZONE BASELINE MODEL INFILTRATION\", Design Flow Rate Calculation Method specifies Flow per Exterior Surface Area, but Exterior Surface Area = 0.  0 Infiltration will result.",
    "   ** Warning ** GetSimpleAirModelInputs: ZoneInfiltration:DesignFlowRate=\"STORY 3 CORE THERMAL ZONE BASELINE MODEL INFILTRATION\", Design Flow Rate Calculation Method specifies Flow per Exterior Surface Area, but Exterior Surface Area = 0.  0 Infiltration will result.",
    "   ** Warning ** GetSimpleAirModelInputs: ZoneInfiltration:DesignFlowRate=\"STORY 4 CORE THERMAL ZONE BASELINE MODEL INFILTRATION\", Design Flow Rate Calculation Method specifies Flow per Exterior Surface Area, but Exterior Surface Area = 0.  0 Infiltration will result.",
    "   ** Warning ** GetSimpleAirModelInputs: ZoneInfiltration:DesignFlowRate=\"STORY 5 CORE THERMAL ZONE BASELINE MODEL INFILTRATION\", Design Flow Rate Calculation Method specifies Flow per Exterior Surface Area, but Exterior Surface Area = 0.  0 Infiltration will result.",
    "   ** Warning ** GetSimpleAirModelInputs: ZoneInfiltration:DesignFlowRate=\"STORY 6 CORE THERMAL ZONE BASELINE MODEL INFILTRATION\", Design Flow Rate Calculation Method specifies Flow per Exterior Surface Area, but Exterior Surface Area = 0.  0 Infiltration will result.",
    "   ** Warning ** GetSimpleAirModelInputs: ZoneInfiltration:DesignFlowRate=\"STORY 7 CORE THERMAL ZONE BASELINE MODEL INFILTRATION\", Design Flow Rate Calculation Method specifies Flow per Exterior Surface Area, but Exterior Surface Area = 0.  0 Infiltration will result.",
    "   ** Warning ** GetSimpleAirModelInputs: ZoneInfiltration:DesignFlowRate=\"STORY 8 CORE THERMAL ZONE BASELINE MODEL INFILTRATION\", Design Flow Rate Calculation Method specifies Flow per Exterior Surface Area, but Exterior Surface Area = 0.  0 Infiltration will result.",
    "   ** Warning ** GetElectricEIRChillerInput: Chiller:Electric:EIR=\"CHILLER ELECTRIC EIR 1\"",
    "   **   ~~~   ** Energy input ratio as a function of temperature curve output is not equal to 1.0 (+ or - 10%) at reference conditions.",
    "   **   ~~~   ** Curve output at reference conditions = 0.861",
    "   ************* Beginning System Sizing Calculations",
    "   ** Warning ** GetVRFInput: AirConditioner:VariableRefrigerantFlow=\"AIR CONDITIONER VARIABLE REFRIGERANT FLOW 1\" curve values",
    "   **   ~~~   ** ... Cooling Capacity Ratio Modifier Function of Low Temperature Curve Name = AIR CONDITIONER VARIABLE REFRIGERANT FLOW 1 VRFCOOLCAPFT output is not equal to 1.0 (+ or - 10%) at rated conditions.",
    "   **   ~~~   ** ... Curve output at rated conditions = 1.136",
    "   ** Warning ** Since Zone Minimum Air Flow Input Method = CONSTANT, input for Fixed Minimum Air Flow Rate will be ignored.",
    "   **   ~~~   ** Occurs in AirTerminal:SingleDuct:VAV:Reheat = AIR TERMINAL SINGLE DUCT VAV REHEAT 1",
    "   ** Warning ** Since Zone Minimum Air Flow Input Method = CONSTANT, input for Fixed Minimum Air Flow Rate will be ignored.",
    "   **   ~~~   ** Occurs in AirTerminal:SingleDuct:VAV:NoReheat = AIR TERMINAL SINGLE DUCT VAV NO REHEAT 1",
    "   ** Warning ** AirLoopHVAC:UnitarySystem = AIR LOOP HVAC UNITARY SYSTEM 4",
    "   **   ~~~   ** Method used to determine the cooling supply air flow rate is not specified when cooling coil is present.",
    "   ** Warning ** AirLoopHVAC:UnitarySystem = AIR LOOP HVAC UNITARY SYSTEM 4",
    "   **   ~~~   ** Method used to determine the heating supply air flow rate is not specified when heating coil is present.",
    "   ** Warning ** AirLoopHVAC:UnitarySystem = AIR LOOP HVAC UNITARY SYSTEM 5",
    "   **   ~~~   ** Method used to determine the cooling supply air flow rate is not specified when cooling coil is present.",
    "   ** Warning ** AirLoopHVAC:UnitarySystem = AIR LOOP HVAC UNITARY SYSTEM 5",
    "   **   ~~~   ** Method used to determine the heating supply air flow rate is not specified when heating coil is present.",
    "   ** Warning ** AirLoopHVAC:UnitarySystem = AIR LOOP HVAC UNITARY SYSTEM 2",
    "   **   ~~~   ** Method used to determine the cooling supply air flow rate is not specified when cooling coil is present.",
    "   ** Warning ** AirLoopHVAC:UnitarySystem = AIR LOOP HVAC UNITARY SYSTEM 2",
    "   **   ~~~   ** Method used to determine the heating supply air flow rate is not specified when heating coil is present.",
    "   ************* Beginning Plant Sizing Calculations",
    "   ** Warning ** GetOAControllerInputs: Controller:MechanicalVentilation=\"CONTROLLER MECHANICAL VENTILATION 1",
    "   **   ~~~   ** Cannot locate a matching DesignSpecification:ZoneAirDistribution object for Zone=\"STORY 4 NORTH PERIMETER THERMAL ZONE\".",
    "   **   ~~~   ** Using default zone air distribution effectiveness of 1.0 for heating and cooling.",
    "   ** Warning ** GetOAControllerInputs: Controller:MechanicalVentilation=\"CONTROLLER MECHANICAL VENTILATION 1",
    "   **   ~~~   ** Cannot locate a matching DesignSpecification:ZoneAirDistribution object for Zone=\"STORY 4 SOUTH PERIMETER THERMAL ZONE\".",
    "   **   ~~~   ** Using default zone air distribution effectiveness of 1.0 for heating and cooling.",
    "   ** Warning ** GetOAControllerInputs: Controller:MechanicalVentilation=\"CONTROLLER MECHANICAL VENTILATION 1",
    "   **   ~~~   ** Cannot locate a matching DesignSpecification:ZoneAirDistribution object for Zone=\"STORY 4 WEST PERIMETER THERMAL ZONE\".",
    "   **   ~~~   ** Using default zone air distribution effectiveness of 1.0 for heating and cooling.",
    "   ** Warning ** GetOAControllerInputs: Controller:MechanicalVentilation=\"CONTROLLER MECHANICAL VENTILATION 1",
    "   **   ~~~   ** Cannot locate a matching DesignSpecification:ZoneAirDistribution object for Zone=\"STORY 5 CORE THERMAL ZONE\".",
    "   **   ~~~   ** Using default zone air distribution effectiveness of 1.0 for heating and cooling.",
    "   ** Warning ** GetOAControllerInputs: Controller:MechanicalVentilation=\"CONTROLLER MECHANICAL VENTILATION 1",
    "   **   ~~~   ** Cannot locate a matching DesignSpecification:ZoneAirDistribution object for Zone=\"STORY 5 EAST PERIMETER THERMAL ZONE\".",
    "   **   ~~~   ** Using default zone air distribution effectiveness of 1.0 for heating and cooling.",
    "   ** Warning ** GetOAControllerInputs: Controller:MechanicalVentilation=\"CONTROLLER MECHANICAL VENTILATION 1",
    "   **   ~~~   ** Cannot locate a matching DesignSpecification:ZoneAirDistribution object for Zone=\"STORY 5 NORTH PERIMETER THERMAL ZONE\".",
    "   **   ~~~   ** Using default zone air distribution effectiveness of 1.0 for heating and cooling.",
    "   ** Warning ** GetOAControllerInputs: Controller:MechanicalVentilation=\"CONTROLLER MECHANICAL VENTILATION 1",
    "   **   ~~~   ** Cannot locate a matching DesignSpecification:ZoneAirDistribution object for Zone=\"STORY 5 SOUTH PERIMETER THERMAL ZONE\".",
    "   **   ~~~   ** Using default zone air distribution effectiveness of 1.0 for heating and cooling.",
    "   ** Warning ** GetOAControllerInputs: Controller:MechanicalVentilation=\"CONTROLLER MECHANICAL VENTILATION 1",
    "   **   ~~~   ** Cannot locate a matching DesignSpecification:ZoneAirDistribution object for Zone=\"STORY 5 WEST PERIMETER THERMAL ZONE\".",
    "   **   ~~~   ** Using default zone air distribution effectiveness of 1.0 for heating and cooling.",
    "   ** Warning ** GetOAControllerInputs: Controller:MechanicalVentilation=\"CONTROLLER MECHANICAL VENTILATION 1",
    "   **   ~~~   ** Cannot locate a matching DesignSpecification:ZoneAirDistribution object for Zone=\"STORY 8 EAST PERIMETER THERMAL ZONE\".",
    "   **   ~~~   ** Using default zone air distribution effectiveness of 1.0 for heating and cooling.",
    "   ** Warning ** GetOAControllerInputs: Controller:MechanicalVentilation=\"CONTROLLER MECHANICAL VENTILATION 2",
    "   **   ~~~   ** Cannot locate a matching DesignSpecification:ZoneAirDistribution object for Zone=\"STORY 6 CORE THERMAL ZONE\".",
    "   **   ~~~   ** Using default zone air distribution effectiveness of 1.0 for heating and cooling.",
    "   ** Warning ** GetOAControllerInputs: Controller:MechanicalVentilation=\"CONTROLLER MECHANICAL VENTILATION 2",
    "   **   ~~~   ** Cannot locate a matching DesignSpecification:ZoneAirDistribution object for Zone=\"STORY 7 WEST PERIMETER THERMAL ZONE\".",
    "   **   ~~~   ** Using default zone air distribution effectiveness of 1.0 for heating and cooling.",
    "   ** Warning ** GetOAControllerInputs: Controller:MechanicalVentilation=\"CONTROLLER MECHANICAL VENTILATION 2",
    "   **   ~~~   ** Cannot locate a matching DesignSpecification:ZoneAirDistribution object for Zone=\"STORY 8 CORE THERMAL ZONE\".",
    "   **   ~~~   ** Using default zone air distribution effectiveness of 1.0 for heating and cooling.",
    "   ** Warning ** GetOAControllerInputs: Controller:MechanicalVentilation=\"CONTROLLER MECHANICAL VENTILATION 3",
    "   **   ~~~   ** Cannot locate a matching DesignSpecification:ZoneAirDistribution object for Zone=\"STORY 9 CORE THERMAL ZONE\".",
    "   **   ~~~   ** Using default zone air distribution effectiveness of 1.0 for heating and cooling.",
    "   ** Warning ** CalcBypassFactor: : For object = Coil:Cooling:DX:CurveFit:Speed, name = \"COIL COOLING DX CURVE FIT SPEED 1\"",
    "   **   ~~~   ** Calculated outlet air relative humidity greater than 1. The combination of",
    "   **   ~~~   ** rated air volume flow rate, total cooling capacity and sensible heat ratio yields coil exiting",
    "   **   ~~~   ** air conditions above the saturation curve. Possible fixes are to reduce the rated total cooling",
    "   **   ~~~   ** capacity, increase the rated air volume flow rate, or reduce the rated sensible heat ratio for this coil.",
    "   **   ~~~   ** If autosizing, it is recommended that all three of these values be autosized.",
    "   **   ~~~   ** ...Inputs used for calculating cooling coil bypass factor.",
    "   **   ~~~   ** ...Inlet Air Temperature     = 26.67 C",
    "   **   ~~~   ** ...Outlet Air Temperature    = 9.00 C",
    "   **   ~~~   ** ...Inlet Air Humidity Ratio  = 1.118470E-002 kgWater/kgDryAir",
    "   **   ~~~   ** ...Outlet Air Humidity Ratio = 9.856098E-003 kgWater/kgDryAir",
    "   **   ~~~   ** ...Total Cooling Capacity used in calculation = 25552.62 W",
    "   **   ~~~   ** ...Air Mass Flow Rate used in calculation     = 1.190298 kg/s",
    "   **   ~~~   ** ...Air Volume Flow Rate used in calculation   = 1.029004 m3/s",
    "   ** Warning ** CalcBypassFactor: Coil:Cooling:DX:CurveFit:Speed \"COIL COOLING DX CURVE FIT SPEED 1\", SHR adjusted to achieve valid outlet air properties and the simulation continues.",
    "   **   ~~~   ** Initial SHR = 0.84215",
    "   **   ~~~   ** Adjusted SHR = 0.70135",
    "   ** Warning ** In calculating the design coil UA for Coil:Cooling:Water COIL COOLING WATER 2",
    "   **   ~~~   ** the apparatus dew-point is below the coil design inlet water temperature;",
    "   **   ~~~   ** The initial design conditions are: Tair,in = 26.0866",
    "   **   ~~~   **                                    Wair,in = 1.497180E-002",
    "   **   ~~~   **                                    Twater,in = 6.6667",
    "   **   ~~~   **                                    Tair,out = 12.8000",
    "   **   ~~~   **                                    Wair,out = 8.500000E-003",
    "   ** Severe  ** AirLoopHVAC:UnitarySystem = AIR LOOP HVAC UNITARY SYSTEM 2",
    "   **   ~~~   **  For SingleZoneVAV control the No Load Supply Air Flow Rate must be less than both the cooling and heating supply air flow rates.",
    "   **   ~~~   **  The SingleZoneVAV control No Load Supply Air Flow Rate is reset to 6.85401 and the simulation continues.",
    "   ** Severe  ** AirLoopHVAC:UnitarySystem = AIR LOOP HVAC UNITARY SYSTEM 1",
    "   **   ~~~   **  For SingleZoneVAV control the No Load Supply Air Flow Rate must be less than both the cooling and heating supply air flow rates.",
    "   **   ~~~   **  The SingleZoneVAV control No Load Supply Air Flow Rate is reset to 0.76976 and the simulation continues.",
    "   ** Warning ** Missing optional HumRatMax setpoint for HeatExchanger:Desiccant:BalancedFlow \"HEAT EXCHANGER DESICCANT BALANCED FLOW 1\"",
    "   **   ~~~   ** ...the simulation will continue without control of the desiccant heat exchanger to a maximum humidity ratio setpoint.",
    "   **   ~~~   ** ...use a Setpoint Manager to establish a setpoint at the process air outlet node of the desiccant Heat Exchanger if control is desired.",
    "   ** Warning ** Output:Meter:MeterFileOnly requested for \"Electricity:Facility\" (TimeStep), already on \"Output:Meter\". Will report to both eplusout.eso and eplusout.mtr",
    "   ************* Testing Individual Branch Integrity",
    "   ************* All Branches passed integrity testing",
    "   ************* Testing Individual Supply Air Path Integrity",
    "   ************* All Supply Air Paths passed integrity testing",
    "   ************* Testing Individual Return Air Path Integrity",
    "   ************* All Return Air Paths passed integrity testing",
    "   ************* No node connection errors were found.",
    "   ************* Beginning Simulation",
    "   ** Warning ** ZoneHVAC:LowTemperatureRadiant:VariableFlow [ZONE HVAC LOW TEMPERATURE RADIANT VARIABLE FLOW 1]",
    "   **   ~~~   ** Surface [STORY 4 CORE SPACE TO STORY 3 CORE SPACE INTERIOR ROOFCEILING] temperature below dew-point temperature--potential for condensation exists",
    "   **   ~~~   ** Flow to the radiant system will be shut-off to avoid condensation",
    "   **   ~~~   ** Predicted radiant system surface temperature = 46.08",
    "   **   ~~~   ** Zone dew-point temperature + safety delta T= 51.35",
    "   **   ~~~   **  Environment=CHICAGO OHARE INTL AP ANN CLG .4% CONDNS DB=>MWB, at Simulation time=07/21 00:00 - 00:15",
    "   **   ~~~   ** Note that a 1.0000 C safety was chosen in the input for the shut-off criteria",
    "   **   ~~~   ** Note also that this affects all surfaces that are part of this radiant system",
    "   ** Warning ** ZoneHVAC:CoolingPanel:RadiantConvective:Water [ZONE HVAC COOLING PANEL RADIANT CONVECTIVE WATER 1] inlet water temperature below dew-point temperature--potential for condensation exists",
    "   **   ~~~   ** Flow to the simple cooling panel will be shut-off to avoid condensation",
    "   **   ~~~   ** Water inlet temperature = 8.31",
    "   **   ~~~   ** Zone dew-point temperature + safety delta T= 25.66",
    "   **   ~~~   **  Environment=CHICAGO OHARE INTL AP ANN CLG .4% CONDNS DB=>MWB, at Simulation time=07/21 00:00 - 00:15",
    "   **   ~~~   ** Note that a 1.0000 C safety was chosen in the input for the shut-off criteria",
    "   ** Warning ** WaterHeater:HeatPump:PumpedCondenser \"WATER HEATER HEAT PUMP 1:  Water heater tank set point temperature is greater than or equal to the cut-in temperature of the heat pump water heater. Heat Pump will be disabled and simulation continues.",
    "   **   ~~~   **  ...Heat Pump cut-in temperature=55 Environment=CHICAGO OHARE INTL AP ANN CLG .4% CONDNS DB=>MWB, at Simulation time=07/21 00:00 - 00:15",
    "   ** Warning ** Output:Table:Monthly requested with SimulationControl Run Simulation for Weather File Run Periods set to No so Output:Table:Monthly will not be generated",
    "   ** Warning ** CalcDoe2DXCoil: Coil:Cooling:DX:SingleSpeed \"COIL COOLING DX SINGLE SPEED 1\" - Full load outlet air dry-bulb temperature < 2C. This indicates the possibility of coil frost/freeze. Outlet temperature = 1.96 C.",
    "   **   ~~~   **  ...Occurrence info = CHICAGO OHARE INTL AP ANN CLG .4% CONDNS DB=>MWB, 07/21 00:00 - 00:15",
    "   **   ~~~   ** ... Possible reasons for low outlet air dry-bulb temperatures are: This DX coil",
    "   **   ~~~   **    1) may have a low inlet air dry-bulb temperature. Inlet air temperature = 12.987 C.",
    "   **   ~~~   **    2) may have a low air flow rate per watt of cooling capacity. Check inputs.",
    "   **   ~~~   **    3) is used as part of a HX assisted cooling coil which uses a high sensible effectiveness. Check inputs.",
    "   ** Warning ** Calculated Humidity Ratio invalid (PsyWFnTdbH)",
    "   **   ~~~   **  Routine=CalcDesiccantBalancedHeatExch:   SecOutHumRat",
    "   **   ~~~   **  Environment=CHICAGO OHARE INTL AP ANN HTG 99.6% CONDNS DB, at Simulation time=01/21 00:00 - 00:15",
    "   **   ~~~   **  Dry-Bulb= -29.42 Enthalpy= -36070.910",
    "   **   ~~~   ** Calculated Humidity Ratio= -2.6584E-003 ... Humidity Ratio set to .00001",
    "   ** Warning ** CoolingTower:SingleSpeed \"COOLING TOWER SINGLE SPEED 1\"",
    "   **   ~~~   ** Cooling tower water outlet temperature (4.78 C) is below the specified minimum condenser loop temp of 5.00 C",
    "   **   ~~~   **  Environment=CHICAGO OHARE INTL AP ANN HTG 99.6% CONDNS DB, at Simulation time=01/21 00:00 - 00:15",
    "   ** Warning ** CoolingTower:TwoSpeed \"COOLING TOWER TWO SPEED 1\"",
    "   **   ~~~   ** Cooling tower water outlet temperature (3.85 C) is below the specified minimum condenser loop temp of 5.00 C",
    "   **   ~~~   **  Environment=CHICAGO OHARE INTL AP ANN HTG 99.6% CONDNS DB, at Simulation time=01/21 00:00 - 00:15",
    "   ** Warning ** HeatExchanger:Desiccant:BalancedFlow:PerformanceDataType1 \"HEAT EXCHANGER DESICCANT BALANCED FLOW PERFORMANCE DATA TYPE1 1\" - Regeneration inlet air temperature used in regen outlet air temperature equation is outside model boundaries at -20.00.",
    "   **   ~~~   ** ...Valid range = 17.83 to 48.89. Occurrence info = CHICAGO OHARE INTL AP ANN HTG 99.6% CONDNS DB, 01/21 00:00 - 00:15",
    "   **   ~~~   ** ...Regeneration outlet air temperature equation: regeneration inlet air temperature passed to the model = 17.833330",
    "   **   ~~~   ** ...Using regeneration inlet air temperatures that are outside the regeneration outlet air temperature equation model boundaries may adversely affect desiccant model performance.",
    "   ** Warning ** HeatExchanger:Desiccant:BalancedFlow:PerformanceDataType1 \"HEAT EXCHANGER DESICCANT BALANCED FLOW PERFORMANCE DATA TYPE1 1\" - Regeneration inlet air humidity ratio used in regen outlet air temperature equation is outside model boundaries at 6.498573E-004.",
    "   **   ~~~   ** ...Valid range = 7.143000E-003 to 2.428600E-002. Occurrence info = CHICAGO OHARE INTL AP ANN HTG 99.6% CONDNS DB, 01/21 00:00 - 00:15",
    "   **   ~~~   ** ...Regeneration outlet air temperature equation: regeneration inlet air humidity ratio passed to the model = 7.143000E-003",
    "   **   ~~~   ** ...Using regeneration inlet air humidity ratios that are outside the regeneration outlet air temperature equation model boundaries may adversely affect desiccant model performance.",
    "   ** Warning ** HeatExchanger:Desiccant:BalancedFlow:PerformanceDataType1 \"HEAT EXCHANGER DESICCANT BALANCED FLOW PERFORMANCE DATA TYPE1 1\" - Regeneration outlet air temperature is greater than inlet temperature at 14.91.",
    "   **   ~~~   ** ...Regen inlet air temperature = -20.00. Occurrence info = CHICAGO OHARE INTL AP ANN HTG 99.6% CONDNS DB, 01/21, 00:00 - 00:15",
    "   **   ~~~   ** ...Regeneration outlet air temperature should always be less than or equal to regen inlet air temperature. Verify correct model coefficients.",
    "   ** Warning ** HeatExchanger:Desiccant:BalancedFlow:PerformanceDataType1 \"HEAT EXCHANGER DESICCANT BALANCED FLOW PERFORMANCE DATA TYPE1 1\" - Regeneration outlet air temperature equation is outside model boundaries at 14.91.",
    "   **   ~~~   ** ...Valid range = 16.67 to 46.11. Occurrence info = CHICAGO OHARE INTL AP ANN HTG 99.6% CONDNS DB, 01/21, 00:00 - 00:15",
    "   **   ~~~   ** ...Regen outlet air temperature equation: regeneration outlet air temperature allowed from the model = 16.666670",
    "   **   ~~~   ** ...Regeneration outlet air temperature should always be less than or equal to regen inlet air temperature. Verify correct model coefficients.",
    "   ** Warning ** HeatExchanger:Desiccant:BalancedFlow:PerformanceDataType1 \"HEAT EXCHANGER DESICCANT BALANCED FLOW PERFORMANCE DATA TYPE1 1\" - Regeneration inlet air temperature used in regen outlet air humidity ratio equation is outside model boundaries at -20.00.",
    "   **   ~~~   ** ...Valid range = 17.83 to 48.89. Occurrence info = CHICAGO OHARE INTL AP ANN HTG 99.6% CONDNS DB, 01/21 , 00:00 - 00:15",
    "   **   ~~~   ** ...Regeneration outlet air humidity ratio equation: regeneration inlet air temperature passed to the model = 17.83",
    "   **   ~~~   ** ...Using regeneration inlet air temperatures that are outside the regeneration inlet air temperature equation model boundaries may adversely affect desiccant model performance.",
    "   ** Warning ** HeatExchanger:Desiccant:BalancedFlow:PerformanceDataType1 \"HEAT EXCHANGER DESICCANT BALANCED FLOW PERFORMANCE DATA TYPE1 1\" - Regeneration inlet air humidity ratio used in regen outlet air humidity ratio equation is outside model boundaries at 6.498573E-004.",
    "   **   ~~~   ** ...Valid range = 7.143000E-003 to 2.428600E-002. Occurrence info = CHICAGO OHARE INTL AP ANN HTG 99.6% CONDNS DB, 01/21 00:00 - 00:15",
    "   **   ~~~   ** ...Regeneration outlet air humidity ratio equation: regeneration inlet air humidity ratio passed to the model = 7.143000E-003",
    "   **   ~~~   ** ...Using regeneration inlet air humidity ratios that are outside the regeneration outlet air humidity ratio equation model boundaries may adversely affect desiccant model performance.",
    "   ** Warning ** CoolingTower:VariableSpeed \"COOLING TOWER VARIABLE SPEED 1\" - Tower range temperature is outside model boundaries at -15.19.",
    "   **   ~~~   **  ...Valid range = 1.11 to 11.11. Occurrence info = CHICAGO OHARE INTL AP ANN HTG 99.6% CONDNS DB, 01/21 00:00 - 00:15",
    "   **   ~~~   **  ...Tower range temperature passed to the model = -15.18899",
    "   **   ~~~   **  ...Range temperatures outside model boundaries may not adversely affect tower performance.",
    "   **   ~~~   **  ...This is not an unexpected occurrence when simulating actual conditions.",
    "   ** Warning ** CoolingTower:VariableSpeed \"COOLING TOWER VARIABLE SPEED 1\" - Inlet air wet-bulb temperature is outside model boundaries at -20.00.",
    "   **   ~~~   **  ...Valid range = -1.00 to 26.67. Occurrence info = CHICAGO OHARE INTL AP ANN HTG 99.6% CONDNS DB, 01/21 00:00 - 00:15",
    "   **   ~~~   **  ...Inlet air wet-bulb temperature passed to the model = -1.000000",
    "   **   ~~~   **  ...Wet-bulb temperatures outside model boundaries may not adversely affect tower performance.",
    "   ** Warning ** CoolingTower:VariableSpeed \"COOLING TOWER VARIABLE SPEED 1\" - Tower approach temperature is outside model boundaries at 41.11.",
    "   **   ~~~   **  ...Valid range = 1.11 to 11.11. Occurrence info = CHICAGO OHARE INTL AP ANN HTG 99.6% CONDNS DB, 01/21 00:00 - 00:15",
    "   **   ~~~   **  ...Tower approach temperature passed to the model = 41.11111",
    "   **   ~~~   **  ...Approach temperatures outside model boundaries may not adversely affect tower performance.",
    "   **   ~~~   **  ...This is not an unexpected occurrence when simulating actual conditions.",
    "   ** Warning ** CoolingTower:VariableSpeed \"COOLING TOWER VARIABLE SPEED 1\" - Water flow rate ratio is outside model boundaries at 0.11.",
    "   **   ~~~   **  ...Valid range = 0.75 to 1.25. Occurrence info = CHICAGO OHARE INTL AP ANN HTG 99.6% CONDNS DB, 01/21 00:00 - 00:15",
    "   **   ~~~   **  ...Water flow rate ratio passed to the model = 0.75000",
    "   **   ~~~   **  ...Water flow rate ratios outside model boundaries may not adversely affect tower performance.",
    "   ** Warning ** CoolingTower:VariableSpeed \"COOLING TOWER VARIABLE SPEED 1\" - Inlet air wet-bulb temperature is outside model boundaries at -20.00.",
    "   **   ~~~   **  ...Valid range = -1.00 to 26.67. Occurrence info = CHICAGO OHARE INTL AP ANN HTG 99.6% CONDNS DB, 01/21 00:15 - 00:30",
    "   **   ~~~   **  ...Inlet air wet-bulb temperature passed to the model = -1.000000",
    "   **   ~~~   **  ...Wet-bulb temperatures outside model boundaries may not adversely affect tower performance.",
    "   ** Warning ** CoolingTower:VariableSpeed \"COOLING TOWER VARIABLE SPEED 1\" - Water flow rate ratio is outside model boundaries at 0.11.",
    "   **   ~~~   **  ...Valid range = 0.75 to 1.25. Occurrence info = CHICAGO OHARE INTL AP ANN HTG 99.6% CONDNS DB, 01/21 00:15 - 00:30",
    "   **   ~~~   **  ...Water flow rate ratio passed to the model = 0.75000",
    "   **   ~~~   **  ...Water flow rate ratios outside model boundaries may not adversely affect tower performance.",
    "   ** Warning ** CoolingTower:VariableSpeed \"COOLING TOWER VARIABLE SPEED 1\" - Inlet air wet-bulb temperature is outside model boundaries at -20.00.",
    "   **   ~~~   **  ...Valid range = -1.00 to 26.67. Occurrence info = CHICAGO OHARE INTL AP ANN HTG 99.6% CONDNS DB, 01/21 00:30 - 00:45",
    "   **   ~~~   **  ...Inlet air wet-bulb temperature passed to the model = -1.000000",
    "   **   ~~~   **  ...Wet-bulb temperatures outside model boundaries may not adversely affect tower performance.",
    "   ** Warning ** CoolingTower:VariableSpeed \"COOLING TOWER VARIABLE SPEED 1\" - Water flow rate ratio is outside model boundaries at 0.11.",
    "   **   ~~~   **  ...Valid range = 0.75 to 1.25. Occurrence info = CHICAGO OHARE INTL AP ANN HTG 99.6% CONDNS DB, 01/21 00:30 - 00:45",
    "   **   ~~~   **  ...Water flow rate ratio passed to the model = 0.75000",
    "   **   ~~~   **  ...Water flow rate ratios outside model boundaries may not adversely affect tower performance.",
    "   ** Warning ** CoolingTower:VariableSpeed \"COOLING TOWER VARIABLE SPEED 1\" - Inlet air wet-bulb temperature is outside model boundaries at -20.00.",
    "   **   ~~~   **  ...Valid range = -1.00 to 26.67. Occurrence info = CHICAGO OHARE INTL AP ANN HTG 99.6% CONDNS DB, 01/21 00:45 - 01:00",
    "   **   ~~~   **  ...Inlet air wet-bulb temperature passed to the model = -1.000000",
    "   **   ~~~   **  ...Wet-bulb temperatures outside model boundaries may not adversely affect tower performance.",
    "   ** Warning ** CoolingTower:VariableSpeed \"COOLING TOWER VARIABLE SPEED 1\" - Water flow rate ratio is outside model boundaries at 0.11.",
    "   **   ~~~   **  ...Valid range = 0.75 to 1.25. Occurrence info = CHICAGO OHARE INTL AP ANN HTG 99.6% CONDNS DB, 01/21 00:45 - 01:00",
    "   **   ~~~   **  ...Water flow rate ratio passed to the model = 0.75000",
    "   **   ~~~   **  ...Water flow rate ratios outside model boundaries may not adversely affect tower performance.",
    "   ** Warning ** CoolingTower:VariableSpeed \"COOLING TOWER VARIABLE SPEED 1\" - Inlet air wet-bulb temperature is outside model boundaries at -20.00.",
    "   **   ~~~   **  ...Valid range = -1.00 to 26.67. Occurrence info = CHICAGO OHARE INTL AP ANN HTG 99.6% CONDNS DB, 01/21 01:00 - 01:15",
    "   **   ~~~   **  ...Inlet air wet-bulb temperature passed to the model = -1.000000",
    "   **   ~~~   **  ...Wet-bulb temperatures outside model boundaries may not adversely affect tower performance.",
    "   ** Warning ** CoolingTower:VariableSpeed \"COOLING TOWER VARIABLE SPEED 1\" - Water flow rate ratio is outside model boundaries at 0.11.",
    "   **   ~~~   **  ...Valid range = 0.75 to 1.25. Occurrence info = CHICAGO OHARE INTL AP ANN HTG 99.6% CONDNS DB, 01/21 01:00 - 01:15",
    "   **   ~~~   **  ...Water flow rate ratio passed to the model = 0.75000",
    "   **   ~~~   **  ...Water flow rate ratios outside model boundaries may not adversely affect tower performance.",
    "   ************* Simulation Error Summary *************",
    "   ************* There are 8 unused objects in input.",
    "   ************* Use Output:Diagnostics,DisplayUnusedObjects; to see them.",
    "   ************* There are 5 unused schedules in input.",
    "   ************* There are 5 unused week schedules in input.",
    "   ************* There are 9 unused day schedules in input.",
    "   ************* Use Output:Diagnostics,DisplayUnusedSchedules; to see them.",
    "   *************",
    "   ************* ===== Recurring Error Summary =====",
    "   ************* The following recurring error messages occurred.",
    "   *************",
    "   *************  ** Warning ** Actual air mass flow rate is smaller than 25% of water-to-air heat pump coil rated air flow rate.",
    "   *************  **   ~~~   **   This error occurred 2042 total times;",
    "   *************  **   ~~~   **   during Warmup 2040 times;",
    "   *************  **   ~~~   **   during Sizing 0 times.",
    "   *************  **   ~~~   **   Max=0.274421  Min=1.507849E-002",
    "   *************",
    "   *************  ** Warning ** ZoneHVAC:LowTemperatureRadiant:VariableFlow [ZONE HVAC LOW TEMPERATURE RADIANT VARIABLE FLOW 1] condensation shut-off occurrence continues.",
    "   *************  **   ~~~   **   This error occurred 226 total times;",
    "   *************  **   ~~~   **   during Warmup 0 times;",
    "   *************  **   ~~~   **   during Sizing 0 times.",
    "   *************  **   ~~~   **   Max=50.433055 C  Min=50.32556 C",
    "   *************",
    "   *************  ** Warning ** ZoneHVAC:CoolingPanel:RadiantConvective:Water [ZONE HVAC COOLING PANEL RADIANT CONVECTIVE WATER 1] condensation shut-off occurrence continues.",
    "   *************  **   ~~~   **   This error occurred 226 total times;",
    "   *************  **   ~~~   **   during Warmup 0 times;",
    "   *************  **   ~~~   **   during Sizing 0 times.",
    "   *************  **   ~~~   **   Max=24.731636 C  Min=24.530767 C",
    "   *************",
    "   *************  ** Warning ** WaterHeater:HeatPump:PumpedCondenser \"WATER HEATER HEAT PUMP 1:  Water heater tank set point temperature is greater than or equal to the cut-in temperature of the heat pump water heater. Heat Pump will be disabled error continues...",
    "   *************  **   ~~~   **   This error occurred 5375 total times;",
    "   *************  **   ~~~   **   during Warmup 0 times;",
    "   *************  **   ~~~   **   during Sizing 0 times.",
    "   *************  **   ~~~   **   Max=55.  Min=55.",
    "   *************",
    "   *************  ** Warning ** CalcDoe2DXCoil: Coil:Cooling:DX:SingleSpeed=\"COIL COOLING DX SINGLE SPEED 1\" - Full load outlet temperature indicates a possibility of frost/freeze error continues. Outlet air temperature statistics follow:",
    "   *************  **   ~~~   **   This error occurred 15 total times;",
    "   *************  **   ~~~   **   during Warmup 0 times;",
    "   *************  **   ~~~   **   during Sizing 0 times.",
    "   *************  **   ~~~   **   Max=1.973729  Min=1.611237",
    "   *************",
    "   *************  ** Warning ** Calculated Humidity Ratio invalid (PsyWFnTdbH)",
    "   *************  **   ~~~   **   This error occurred 576 total times;",
    "   *************  **   ~~~   **   during Warmup 0 times;",
    "   *************  **   ~~~   **   during Sizing 0 times.",
    "   *************  **   ~~~   **   Max=-2.658457E-003 []  Min=-2.658472E-003 []",
    "   *************",
    "   *************  ** Warning ** CoolingTower:SingleSpeed \"COOLING TOWER SINGLE SPEED 1\" Cooling tower water outlet temperature is below the specified minimum condenser loop temp error continues...",
    "   *************  **   ~~~   **   This error occurred 1343 total times;",
    "   *************  **   ~~~   **   during Warmup 0 times;",
    "   *************  **   ~~~   **   during Sizing 0 times.",
    "   *************  **   ~~~   **   Max=4.891566  Min=4.766951",
    "   *************",
    "   *************  ** Warning ** CoolingTower:TwoSpeed \"COOLING TOWER TWO SPEED 1\" Cooling tower water outlet temperature is below the specified minimum condenser loop temp error continues...",
    "   *************  **   ~~~   **   This error occurred 1343 total times;",
    "   *************  **   ~~~   **   during Warmup 0 times;",
    "   *************  **   ~~~   **   during Sizing 0 times.",
    "   *************  **   ~~~   **   Max=3.958809  Min=3.839237",
    "   *************",
    "   *************  ** Warning ** HeatExchanger:Desiccant:BalancedFlow:PerformanceDataType1 \"HEAT EXCHANGER DESICCANT BALANCED FLOW PERFORMANCE DATA TYPE1 1\" - Regeneration inlet air temp used in regen outlet air temperature equation is out of range error continues...",
    "   *************  **   ~~~   **   This error occurred 94 total times;",
    "   *************  **   ~~~   **   during Warmup 0 times;",
    "   *************  **   ~~~   **   during Sizing 0 times.",
    "   *************  **   ~~~   **   Max=-20.  Min=-20.",
    "   *************",
    "   *************  ** Warning ** HeatExchanger:Desiccant:BalancedFlow:PerformanceDataType1 \"HEAT EXCHANGER DESICCANT BALANCED FLOW PERFORMANCE DATA TYPE1 1\" - Regeneration inlet air humidity ratio used in regen outlet temperature equation is out of range error continues...",
    "   *************  **   ~~~   **   This error occurred 94 total times;",
    "   *************  **   ~~~   **   during Warmup 0 times;",
    "   *************  **   ~~~   **   during Sizing 0 times.",
    "   *************  **   ~~~   **   Max=6.498573E-004  Min=6.498573E-004",
    "   *************",
    "   *************  ** Warning ** HeatExchanger:Desiccant:BalancedFlow:PerformanceDataType1 \"HEAT EXCHANGER DESICCANT BALANCED FLOW PERFORMANCE DATA TYPE1 1\" - Regeneration outlet air temperature above regen inlet air temperature error continues...",
    "   *************  **   ~~~   **   This error occurred 94 total times;",
    "   *************  **   ~~~   **   during Warmup 0 times;",
    "   *************  **   ~~~   **   during Sizing 0 times.",
    "   *************  **   ~~~   **   Max=14.91361  Min=14.913582",
    "   *************",
    "   *************  ** Warning ** HeatExchanger:Desiccant:BalancedFlow:PerformanceDataType1 \"HEAT EXCHANGER DESICCANT BALANCED FLOW PERFORMANCE DATA TYPE1 1\" - Regeneration outlet air temperature should be less than regen inlet air temperature error continues...",
    "   *************  **   ~~~   **   This error occurred 94 total times;",
    "   *************  **   ~~~   **   during Warmup 0 times;",
    "   *************  **   ~~~   **   during Sizing 0 times.",
    "   *************  **   ~~~   **   Max=14.91361  Min=14.913582",
    "   *************",
    "   *************  ** Warning ** HeatExchanger:Desiccant:BalancedFlow:PerformanceDataType1 \"HEAT EXCHANGER DESICCANT BALANCED FLOW PERFORMANCE DATA TYPE1 1\" - Regeneration inlet air temperature used in regen outlet air humidity ratio equation is out of range error continues...",
    "   *************  **   ~~~   **   This error occurred 94 total times;",
    "   *************  **   ~~~   **   during Warmup 0 times;",
    "   *************  **   ~~~   **   during Sizing 0 times.",
    "   *************  **   ~~~   **   Max=-20.  Min=-20.",
    "   *************",
    "   *************  ** Warning ** HeatExchanger:Desiccant:BalancedFlow:PerformanceDataType1 \"HEAT EXCHANGER DESICCANT BALANCED FLOW PERFORMANCE DATA TYPE1 1\" - Regeneration inlet air humidity ratio used in regen outlet air humidity ratio equation is out of range error continues...",
    "   *************  **   ~~~   **   This error occurred 94 total times;",
    "   *************  **   ~~~   **   during Warmup 0 times;",
    "   *************  **   ~~~   **   during Sizing 0 times.",
    "   *************  **   ~~~   **   Max=6.498573E-004  Min=6.498573E-004",
    "   *************",
    "   *************  ** Warning ** CoolingTower:VariableSpeed \"COOLING TOWER VARIABLE SPEED 1\" - Tower range temperature is out of range error continues...",
    "   *************  **   ~~~   **   This error occurred 94 total times;",
    "   *************  **   ~~~   **   during Warmup 0 times;",
    "   *************  **   ~~~   **   during Sizing 0 times.",
    "   *************  **   ~~~   **   Max=-15.189114  Min=-15.198512",
    "   *************",
    "   *************  ** Warning ** CoolingTower:VariableSpeed \"COOLING TOWER VARIABLE SPEED 1\" - Tower approach temperature is out of range error continues...",
    "   *************  **   ~~~   **   This error occurred 94 total times;",
    "   *************  **   ~~~   **   during Warmup 0 times;",
    "   *************  **   ~~~   **   during Sizing 0 times.",
    "   *************  **   ~~~   **   Max=41.111113  Min=41.111113",
    "   *************",
    "   *************  ** Warning ** CoolingTower:VariableSpeed \"COOLING TOWER VARIABLE SPEED 1\" - Inlet air wet-bulb temperature is out of range error continues...",
    "   *************  **   ~~~   **   This error occurred 90 total times;",
    "   *************  **   ~~~   **   during Warmup 0 times;",
    "   *************  **   ~~~   **   during Sizing 0 times.",
    "   *************  **   ~~~   **   Max=-20.000001  Min=-20.000001",
    "   *************",
    "   *************  ** Warning ** CoolingTower:VariableSpeed \"COOLING TOWER VARIABLE SPEED 1\" - Water flow rate ratio is out of range error continues...",
    "   *************  **   ~~~   **   This error occurred 90 total times;",
    "   *************  **   ~~~   **   during Warmup 0 times;",
    "   *************  **   ~~~   **   during Sizing 0 times.",
    "   *************  **   ~~~   **   Max=0.111115  Min=0.111115",
    "   *************",
    "   *************",
    "   ************* ===== Final Error Summary =====",
    "   ************* The following error categories occurred.  Consider correcting or noting.",
    "   ************* Nominally Unused Constructions",
    "   ************* ..The nominally unused constructions warning is provided to alert you to potential conditions that can cause",
    "   ************* ..extra time during simulation. Each construction is calculated by the algorithm indicated in the HeatBalanceAlgorithm",
    "   ************* ..object. You may remove the constructions indicated (when you use the DisplayExtraWarnings option).",
    "   *************",
    "   ************* EnergyPlus Warmup Error Summary. During Warmup: 0 Warning; 0 Severe Errors.",
    "   ************* EnergyPlus Sizing Error Summary. During Sizing: 28 Warning; 0 Severe Errors.",
    "   ************* EnergyPlus Completed Successfully-- 12146 Warning; 2 Severe Errors; "
  ],
  "file_paths": [
    "/home/julien/Software/Others/OpenStudio-resources/testruns/autosize_hvac.rb/generated_files",
    "./files",
    "./weather",
    "../../files",
    "../../weather",
    "./"
  ],
  "seed_file": "in.osm",
  "steps": [
    {
      "arguments": {
      },
      "measure_dir_name": "openstudio_results",
      "result": {
        "measure_class_name": "OpenStudioResults",
        "measure_display_name": "OpenStudio Results",
        "measure_name": "openstudio_results",
        "measure_taxonomy": "Reporting.QAQC",
        "measure_type": "ReportingMeasure",
        "measure_uid": "a25386cd-60e4-46bc-8b11-c755f379d916",
        "measure_version_id": "02ad7007-fe7b-4747-bd7a-29d697c4d91a",
        "measure_version_modified": "20180711T183039Z",
        "measure_xml_checksum": "557BF06F",
        "stderr": "",
        "stdout": "",
        "step_errors": [

        ],
        "step_final_condition": "Generated report with 16 sections to ./report.html.",
        "step_info": [

        ],
        "step_initial_condition": "Gathering data from EnergyPlus SQL file and OSM model.",
        "step_result": "Success",
        "step_values": [
          {
            "name": "building_summary_section",
            "value": true
          },
          {
            "name": "annual_overview_section",
            "value": true
          },
          {
            "name": "monthly_overview_section",
            "value": true
          },
          {
            "name": "utility_bills_rates_section",
            "value": true
          },
          {
            "name": "envelope_section_section",
            "value": true
          },
          {
            "name": "space_type_breakdown_section",
            "value": true
          },
          {
            "name": "space_type_details_section",
            "value": true
          },
          {
            "name": "interior_lighting_section",
            "value": true
          },
          {
            "name": "plug_loads_section",
            "value": true
          },
          {
            "name": "exterior_light_section",
            "value": true
          },
          {
            "name": "water_use_section",
            "value": true
          },
          {
            "name": "hvac_load_profile",
            "value": true
          },
          {
            "name": "zone_condition_section",
            "value": true
          },
          {
            "name": "zone_summary_section",
            "value": true
          },
          {
            "name": "zone_equipment_detail_section",
            "value": true
          },
          {
            "name": "air_loops_detail_section",
            "value": true
          },
          {
            "name": "plant_loops_detail_section",
            "value": true
          },
          {
            "name": "outdoor_air_section",
            "value": true
          },
          {
            "name": "cost_summary_section",
            "value": true
          },
          {
            "name": "source_energy_section",
            "value": true
          },
          {
            "name": "schedules_overview_section",
            "value": true
          },
          {
            "name": "standards_gem_version",
            "value": "0.2.16"
          },
          {
            "name": "workflow_gem_version",
            "value": "2.3.1"
          },
          {
            "display_name": "Building 1",
            "name": "building_name",
            "value": "n/a"
          },
          {
            "name": "total_site_energy",
            "units": "kBtu",
            "value": 0.0
          },
          {
            "name": "net_site_energy",
            "units": "kBtu",
            "value": 0.0
          },
          {
            "name": "total_building_area",
            "units": "ft^2",
            "value": 484375.97
          },
          {
            "name": "total_site_eui",
            "units": "kBtu/ft^2",
            "value": 0.0
          },
          {
            "name": "eui",
            "units": "kBtu/ft^2",
            "value": 0.0
          },
          {
            "name": "unmet_hours_during_heating",
            "units": "hr",
            "value": 24.0
          },
          {
            "name": "unmet_hours_during_cooling",
            "units": "hr",
            "value": 24.0
          },
          {
            "name": "unmet_hours_during_occupied_heating",
            "units": "hr",
            "value": 0.0
          },
          {
            "name": "unmet_hours_during_occupied_cooling",
            "units": "hr",
            "value": 24.0
          },
          {
            "name": "unmet_hours_tolerance_heating",
            "units": "F",
            "value": 0.36
          },
          {
            "name": "unmet_hours_tolerance_cooling",
            "units": "F",
            "value": 0.36
          },
          {
            "name": "electricity_heating_ip",
            "units": "kWh",
            "value": 0.0
          },
          {
            "name": "electricity_cooling_ip",
            "units": "kWh",
            "value": 0.0
          },
          {
            "name": "electricity_interior_lighting_ip",
            "units": "kWh",
            "value": 0.0
          },
          {
            "name": "electricity_exterior_lighting_ip",
            "units": "kWh",
            "value": 0.0
          },
          {
            "name": "electricity_interior_equipment_ip",
            "units": "kWh",
            "value": 0.0
          },
          {
            "name": "electricity_exterior_equipment_ip",
            "units": "kWh",
            "value": 0.0
          },
          {
            "name": "electricity_fans_ip",
            "units": "kWh",
            "value": 0.0
          },
          {
            "name": "electricity_pumps_ip",
            "units": "kWh",
            "value": 0.0
          },
          {
            "name": "electricity_heat_rejection_ip",
            "units": "kWh",
            "value": 0.0
          },
          {
            "name": "electricity_humidification_ip",
            "units": "kWh",
            "value": 0.0
          },
          {
            "name": "electricity_heat_recovery_ip",
            "units": "kWh",
            "value": 0.0
          },
          {
            "name": "electricity_water_systems_ip",
            "units": "kWh",
            "value": 0.0
          },
          {
            "name": "electricity_refrigeration_ip",
            "units": "kWh",
            "value": 0.0
          },
          {
            "name": "electricity_generators_ip",
            "units": "kWh",
            "value": 0.0
          },
          {
            "name": "electricity_ip",
            "units": "kWh",
            "value": 0.0
          },
          {
            "name": "natural_gas_heating_ip",
            "units": "MBtu",
            "value": 0.0
          },
          {
            "name": "natural_gas_cooling_ip",
            "units": "MBtu",
            "value": 0.0
          },
          {
            "name": "natural_gas_interior_lighting_ip",
            "units": "MBtu",
            "value": 0.0
          },
          {
            "name": "natural_gas_exterior_lighting_ip",
            "units": "MBtu",
            "value": 0.0
          },
          {
            "name": "natural_gas_interior_equipment_ip",
            "units": "MBtu",
            "value": 0.0
          },
          {
            "name": "natural_gas_exterior_equipment_ip",
            "units": "MBtu",
            "value": 0.0
          },
          {
            "name": "natural_gas_fans_ip",
            "units": "MBtu",
            "value": 0.0
          },
          {
            "name": "natural_gas_pumps_ip",
            "units": "MBtu",
            "value": 0.0
          },
          {
            "name": "natural_gas_heat_rejection_ip",
            "units": "MBtu",
            "value": 0.0
          },
          {
            "name": "natural_gas_humidification_ip",
            "units": "MBtu",
            "value": 0.0
          },
          {
            "name": "natural_gas_heat_recovery_ip",
            "units": "MBtu",
            "value": 0.0
          },
          {
            "name": "natural_gas_water_systems_ip",
            "units": "MBtu",
            "value": 0.0
          },
          {
            "name": "natural_gas_refrigeration_ip",
            "units": "MBtu",
            "value": 0.0
          },
          {
            "name": "natural_gas_generators_ip",
            "units": "MBtu",
            "value": 0.0
          },
          {
            "name": "natural_gas_ip",
            "units": "MBtu",
            "value": 0.0
          },
          {
            "name": "gasoline_heating_ip",
            "units": "MBtu",
            "value": 0.0
          },
          {
            "name": "gasoline_cooling_ip",
            "units": "MBtu",
            "value": 0.0
          },
          {
            "name": "gasoline_interior_lighting_ip",
            "units": "MBtu",
            "value": 0.0
          },
          {
            "name": "gasoline_exterior_lighting_ip",
            "units": "MBtu",
            "value": 0.0
          },
          {
            "name": "gasoline_interior_equipment_ip",
            "units": "MBtu",
            "value": 0.0
          },
          {
            "name": "gasoline_exterior_equipment_ip",
            "units": "MBtu",
            "value": 0.0
          },
          {
            "name": "gasoline_fans_ip",
            "units": "MBtu",
            "value": 0.0
          },
          {
            "name": "gasoline_pumps_ip",
            "units": "MBtu",
            "value": 0.0
          },
          {
            "name": "gasoline_heat_rejection_ip",
            "units": "MBtu",
            "value": 0.0
          },
          {
            "name": "gasoline_humidification_ip",
            "units": "MBtu",
            "value": 0.0
          },
          {
            "name": "gasoline_heat_recovery_ip",
            "units": "MBtu",
            "value": 0.0
          },
          {
            "name": "gasoline_water_systems_ip",
            "units": "MBtu",
            "value": 0.0
          },
          {
            "name": "gasoline_refrigeration_ip",
            "units": "MBtu",
            "value": 0.0
          },
          {
            "name": "gasoline_generators_ip",
            "units": "MBtu",
            "value": 0.0
          },
          {
            "name": "gasoline_ip",
            "units": "MBtu",
            "value": 0.0
          },
          {
            "name": "diesel_heating_ip",
            "units": "MBtu",
            "value": 0.0
          },
          {
            "name": "diesel_cooling_ip",
            "units": "MBtu",
            "value": 0.0
          },
          {
            "name": "diesel_interior_lighting_ip",
            "units": "MBtu",
            "value": 0.0
          },
          {
            "name": "diesel_exterior_lighting_ip",
            "units": "MBtu",
            "value": 0.0
          },
          {
            "name": "diesel_interior_equipment_ip",
            "units": "MBtu",
            "value": 0.0
          },
          {
            "name": "diesel_exterior_equipment_ip",
            "units": "MBtu",
            "value": 0.0
          },
          {
            "name": "diesel_fans_ip",
            "units": "MBtu",
            "value": 0.0
          },
          {
            "name": "diesel_pumps_ip",
            "units": "MBtu",
            "value": 0.0
          },
          {
            "name": "diesel_heat_rejection_ip",
            "units": "MBtu",
            "value": 0.0
          },
          {
            "name": "diesel_humidification_ip",
            "units": "MBtu",
            "value": 0.0
          },
          {
            "name": "diesel_heat_recovery_ip",
            "units": "MBtu",
            "value": 0.0
          },
          {
            "name": "diesel_water_systems_ip",
            "units": "MBtu",
            "value": 0.0
          },
          {
            "name": "diesel_refrigeration_ip",
            "units": "MBtu",
            "value": 0.0
          },
          {
            "name": "diesel_generators_ip",
            "units": "MBtu",
            "value": 0.0
          },
          {
            "name": "diesel_ip",
            "units": "MBtu",
            "value": 0.0
          },
          {
            "name": "coal_heating_ip",
            "units": "MBtu",
            "value": 0.0
          },
          {
            "name": "coal_cooling_ip",
            "units": "MBtu",
            "value": 0.0
          },
          {
            "name": "coal_interior_lighting_ip",
            "units": "MBtu",
            "value": 0.0
          },
          {
            "name": "coal_exterior_lighting_ip",
            "units": "MBtu",
            "value": 0.0
          },
          {
            "name": "coal_interior_equipment_ip",
            "units": "MBtu",
            "value": 0.0
          },
          {
            "name": "coal_exterior_equipment_ip",
            "units": "MBtu",
            "value": 0.0
          },
          {
            "name": "coal_fans_ip",
            "units": "MBtu",
            "value": 0.0
          },
          {
            "name": "coal_pumps_ip",
            "units": "MBtu",
            "value": 0.0
          },
          {
            "name": "coal_heat_rejection_ip",
            "units": "MBtu",
            "value": 0.0
          },
          {
            "name": "coal_humidification_ip",
            "units": "MBtu",
            "value": 0.0
          },
          {
            "name": "coal_heat_recovery_ip",
            "units": "MBtu",
            "value": 0.0
          },
          {
            "name": "coal_water_systems_ip",
            "units": "MBtu",
            "value": 0.0
          },
          {
            "name": "coal_refrigeration_ip",
            "units": "MBtu",
            "value": 0.0
          },
          {
            "name": "coal_generators_ip",
            "units": "MBtu",
            "value": 0.0
          },
          {
            "name": "coal_ip",
            "units": "MBtu",
            "value": 0.0
          },
          {
            "name": "fuel_oil_no_1_heating_ip",
            "units": "MBtu",
            "value": 0.0
          },
          {
            "name": "fuel_oil_no_1_cooling_ip",
            "units": "MBtu",
            "value": 0.0
          },
          {
            "name": "fuel_oil_no_1_interior_lighting_ip",
            "units": "MBtu",
            "value": 0.0
          },
          {
            "name": "fuel_oil_no_1_exterior_lighting_ip",
            "units": "MBtu",
            "value": 0.0
          },
          {
            "name": "fuel_oil_no_1_interior_equipment_ip",
            "units": "MBtu",
            "value": 0.0
          },
          {
            "name": "fuel_oil_no_1_exterior_equipment_ip",
            "units": "MBtu",
            "value": 0.0
          },
          {
            "name": "fuel_oil_no_1_fans_ip",
            "units": "MBtu",
            "value": 0.0
          },
          {
            "name": "fuel_oil_no_1_pumps_ip",
            "units": "MBtu",
            "value": 0.0
          },
          {
            "name": "fuel_oil_no_1_heat_rejection_ip",
            "units": "MBtu",
            "value": 0.0
          },
          {
            "name": "fuel_oil_no_1_humidification_ip",
            "units": "MBtu",
            "value": 0.0
          },
          {
            "name": "fuel_oil_no_1_heat_recovery_ip",
            "units": "MBtu",
            "value": 0.0
          },
          {
            "name": "fuel_oil_no_1_water_systems_ip",
            "units": "MBtu",
            "value": 0.0
          },
          {
            "name": "fuel_oil_no_1_refrigeration_ip",
            "units": "MBtu",
            "value": 0.0
          },
          {
            "name": "fuel_oil_no_1_generators_ip",
            "units": "MBtu",
            "value": 0.0
          },
          {
            "name": "fuel_oil_no_1_ip",
            "units": "MBtu",
            "value": 0.0
          },
          {
            "name": "fuel_oil_no_2_heating_ip",
            "units": "MBtu",
            "value": 0.0
          },
          {
            "name": "fuel_oil_no_2_cooling_ip",
            "units": "MBtu",
            "value": 0.0
          },
          {
            "name": "fuel_oil_no_2_interior_lighting_ip",
            "units": "MBtu",
            "value": 0.0
          },
          {
            "name": "fuel_oil_no_2_exterior_lighting_ip",
            "units": "MBtu",
            "value": 0.0
          },
          {
            "name": "fuel_oil_no_2_interior_equipment_ip",
            "units": "MBtu",
            "value": 0.0
          },
          {
            "name": "fuel_oil_no_2_exterior_equipment_ip",
            "units": "MBtu",
            "value": 0.0
          },
          {
            "name": "fuel_oil_no_2_fans_ip",
            "units": "MBtu",
            "value": 0.0
          },
          {
            "name": "fuel_oil_no_2_pumps_ip",
            "units": "MBtu",
            "value": 0.0
          },
          {
            "name": "fuel_oil_no_2_heat_rejection_ip",
            "units": "MBtu",
            "value": 0.0
          },
          {
            "name": "fuel_oil_no_2_humidification_ip",
            "units": "MBtu",
            "value": 0.0
          },
          {
            "name": "fuel_oil_no_2_heat_recovery_ip",
            "units": "MBtu",
            "value": 0.0
          },
          {
            "name": "fuel_oil_no_2_water_systems_ip",
            "units": "MBtu",
            "value": 0.0
          },
          {
            "name": "fuel_oil_no_2_refrigeration_ip",
            "units": "MBtu",
            "value": 0.0
          },
          {
            "name": "fuel_oil_no_2_generators_ip",
            "units": "MBtu",
            "value": 0.0
          },
          {
            "name": "fuel_oil_no_2_ip",
            "units": "MBtu",
            "value": 0.0
          },
          {
            "name": "propane_heating_ip",
            "units": "MBtu",
            "value": 0.0
          },
          {
            "name": "propane_cooling_ip",
            "units": "MBtu",
            "value": 0.0
          },
          {
            "name": "propane_interior_lighting_ip",
            "units": "MBtu",
            "value": 0.0
          },
          {
            "name": "propane_exterior_lighting_ip",
            "units": "MBtu",
            "value": 0.0
          },
          {
            "name": "propane_interior_equipment_ip",
            "units": "MBtu",
            "value": 0.0
          },
          {
            "name": "propane_exterior_equipment_ip",
            "units": "MBtu",
            "value": 0.0
          },
          {
            "name": "propane_fans_ip",
            "units": "MBtu",
            "value": 0.0
          },
          {
            "name": "propane_pumps_ip",
            "units": "MBtu",
            "value": 0.0
          },
          {
            "name": "propane_heat_rejection_ip",
            "units": "MBtu",
            "value": 0.0
          },
          {
            "name": "propane_humidification_ip",
            "units": "MBtu",
            "value": 0.0
          },
          {
            "name": "propane_heat_recovery_ip",
            "units": "MBtu",
            "value": 0.0
          },
          {
            "name": "propane_water_systems_ip",
            "units": "MBtu",
            "value": 0.0
          },
          {
            "name": "propane_refrigeration_ip",
            "units": "MBtu",
            "value": 0.0
          },
          {
            "name": "propane_generators_ip",
            "units": "MBtu",
            "value": 0.0
          },
          {
            "name": "propane_ip",
            "units": "MBtu",
            "value": 0.0
          },
          {
            "name": "other_fuel_1_heating_ip",
            "units": "MBtu",
            "value": 0.0
          },
          {
            "name": "other_fuel_1_cooling_ip",
            "units": "MBtu",
            "value": 0.0
          },
          {
            "name": "other_fuel_1_interior_lighting_ip",
            "units": "MBtu",
            "value": 0.0
          },
          {
            "name": "other_fuel_1_exterior_lighting_ip",
            "units": "MBtu",
            "value": 0.0
          },
          {
            "name": "other_fuel_1_interior_equipment_ip",
            "units": "MBtu",
            "value": 0.0
          },
          {
            "name": "other_fuel_1_exterior_equipment_ip",
            "units": "MBtu",
            "value": 0.0
          },
          {
            "name": "other_fuel_1_fans_ip",
            "units": "MBtu",
            "value": 0.0
          },
          {
            "name": "other_fuel_1_pumps_ip",
            "units": "MBtu",
            "value": 0.0
          },
          {
            "name": "other_fuel_1_heat_rejection_ip",
            "units": "MBtu",
            "value": 0.0
          },
          {
            "name": "other_fuel_1_humidification_ip",
            "units": "MBtu",
            "value": 0.0
          },
          {
            "name": "other_fuel_1_heat_recovery_ip",
            "units": "MBtu",
            "value": 0.0
          },
          {
            "name": "other_fuel_1_water_systems_ip",
            "units": "MBtu",
            "value": 0.0
          },
          {
            "name": "other_fuel_1_refrigeration_ip",
            "units": "MBtu",
            "value": 0.0
          },
          {
            "name": "other_fuel_1_generators_ip",
            "units": "MBtu",
            "value": 0.0
          },
          {
            "name": "other_fuel_1_ip",
            "units": "MBtu",
            "value": 0.0
          },
          {
            "name": "other_fuel_2_heating_ip",
            "units": "MBtu",
            "value": 0.0
          },
          {
            "name": "other_fuel_2_cooling_ip",
            "units": "MBtu",
            "value": 0.0
          },
          {
            "name": "other_fuel_2_interior_lighting_ip",
            "units": "MBtu",
            "value": 0.0
          },
          {
            "name": "other_fuel_2_exterior_lighting_ip",
            "units": "MBtu",
            "value": 0.0
          },
          {
            "name": "other_fuel_2_interior_equipment_ip",
            "units": "MBtu",
            "value": 0.0
          },
          {
            "name": "other_fuel_2_exterior_equipment_ip",
            "units": "MBtu",
            "value": 0.0
          },
          {
            "name": "other_fuel_2_fans_ip",
            "units": "MBtu",
            "value": 0.0
          },
          {
            "name": "other_fuel_2_pumps_ip",
            "units": "MBtu",
            "value": 0.0
          },
          {
            "name": "other_fuel_2_heat_rejection_ip",
            "units": "MBtu",
            "value": 0.0
          },
          {
            "name": "other_fuel_2_humidification_ip",
            "units": "MBtu",
            "value": 0.0
          },
          {
            "name": "other_fuel_2_heat_recovery_ip",
            "units": "MBtu",
            "value": 0.0
          },
          {
            "name": "other_fuel_2_water_systems_ip",
            "units": "MBtu",
            "value": 0.0
          },
          {
            "name": "other_fuel_2_refrigeration_ip",
            "units": "MBtu",
            "value": 0.0
          },
          {
            "name": "other_fuel_2_generators_ip",
            "units": "MBtu",
            "value": 0.0
          },
          {
            "name": "other_fuel_2_ip",
            "units": "MBtu",
            "value": 0.0
          },
          {
            "name": "district_cooling_heating_ip",
            "units": "MBtu",
            "value": 0.0
          },
          {
            "name": "district_cooling_cooling_ip",
            "units": "MBtu",
            "value": 0.0
          },
          {
            "name": "district_cooling_interior_lighting_ip",
            "units": "MBtu",
            "value": 0.0
          },
          {
            "name": "district_cooling_exterior_lighting_ip",
            "units": "MBtu",
            "value": 0.0
          },
          {
            "name": "district_cooling_interior_equipment_ip",
            "units": "MBtu",
            "value": 0.0
          },
          {
            "name": "district_cooling_exterior_equipment_ip",
            "units": "MBtu",
            "value": 0.0
          },
          {
            "name": "district_cooling_fans_ip",
            "units": "MBtu",
            "value": 0.0
          },
          {
            "name": "district_cooling_pumps_ip",
            "units": "MBtu",
            "value": 0.0
          },
          {
            "name": "district_cooling_heat_rejection_ip",
            "units": "MBtu",
            "value": 0.0
          },
          {
            "name": "district_cooling_humidification_ip",
            "units": "MBtu",
            "value": 0.0
          },
          {
            "name": "district_cooling_heat_recovery_ip",
            "units": "MBtu",
            "value": 0.0
          },
          {
            "name": "district_cooling_water_systems_ip",
            "units": "MBtu",
            "value": 0.0
          },
          {
            "name": "district_cooling_refrigeration_ip",
            "units": "MBtu",
            "value": 0.0
          },
          {
            "name": "district_cooling_generators_ip",
            "units": "MBtu",
            "value": 0.0
          },
          {
            "name": "district_cooling_ip",
            "units": "MBtu",
            "value": 0.0
          },
          {
            "name": "district_heating_heating_ip",
            "units": "MBtu",
            "value": 0.0
          },
          {
            "name": "district_heating_cooling_ip",
            "units": "MBtu",
            "value": 0.0
          },
          {
            "name": "district_heating_interior_lighting_ip",
            "units": "MBtu",
            "value": 0.0
          },
          {
            "name": "district_heating_exterior_lighting_ip",
            "units": "MBtu",
            "value": 0.0
          },
          {
            "name": "district_heating_interior_equipment_ip",
            "units": "MBtu",
            "value": 0.0
          },
          {
            "name": "district_heating_exterior_equipment_ip",
            "units": "MBtu",
            "value": 0.0
          },
          {
            "name": "district_heating_fans_ip",
            "units": "MBtu",
            "value": 0.0
          },
          {
            "name": "district_heating_pumps_ip",
            "units": "MBtu",
            "value": 0.0
          },
          {
            "name": "district_heating_heat_rejection_ip",
            "units": "MBtu",
            "value": 0.0
          },
          {
            "name": "district_heating_humidification_ip",
            "units": "MBtu",
            "value": 0.0
          },
          {
            "name": "district_heating_heat_recovery_ip",
            "units": "MBtu",
            "value": 0.0
          },
          {
            "name": "district_heating_water_systems_ip",
            "units": "MBtu",
            "value": 0.0
          },
          {
            "name": "district_heating_refrigeration_ip",
            "units": "MBtu",
            "value": 0.0
          },
          {
            "name": "district_heating_generators_ip",
            "units": "MBtu",
            "value": 0.0
          },
          {
            "name": "district_heating_ip",
            "units": "MBtu",
            "value": 0.0
          },
          {
            "name": "water_heating_ip",
            "units": "MBtu",
            "value": 0.0
          },
          {
            "name": "water_cooling_ip",
            "units": "MBtu",
            "value": 0.0
          },
          {
            "name": "water_interior_lighting_ip",
            "units": "MBtu",
            "value": 0.0
          },
          {
            "name": "water_exterior_lighting_ip",
            "units": "MBtu",
            "value": 0.0
          },
          {
            "name": "water_interior_equipment_ip",
            "units": "MBtu",
            "value": 0.0
          },
          {
            "name": "water_exterior_equipment_ip",
            "units": "MBtu",
            "value": 0.0
          },
          {
            "name": "water_fans_ip",
            "units": "MBtu",
            "value": 0.0
          },
          {
            "name": "water_pumps_ip",
            "units": "MBtu",
            "value": 0.0
          },
          {
            "name": "water_heat_rejection_ip",
            "units": "MBtu",
            "value": 0.0
          },
          {
            "name": "water_humidification_ip",
            "units": "MBtu",
            "value": 0.0
          },
          {
            "name": "water_heat_recovery_ip",
            "units": "MBtu",
            "value": 0.0
          },
          {
            "name": "water_water_systems_ip",
            "units": "MBtu",
            "value": 0.0
          },
          {
            "name": "water_refrigeration_ip",
            "units": "MBtu",
            "value": 0.0
          },
          {
            "name": "water_generators_ip",
            "units": "MBtu",
            "value": 0.0
          },
          {
            "name": "water_ip",
            "units": "MBtu",
            "value": 0.0
          },
          {
            "name": "ashrae_189_1_2009_ext_roof_iead_climate_zone_2_5",
            "units": "ft^2",
            "value": 53819.55
          },
          {
            "name": "ashrae_189_1_2009_ext_wall_steel_frame_climate_zone_4_8",
            "units": "ft^2",
            "value": 116250.23
          },
          {
            "name": "gross_window_wall_ratio",
            "units": "%",
            "value": 0.0
          },
          {
            "name": "gross_window_wall_ratio_conditioned",
            "units": "%",
            "value": 0.0
          },
          {
            "name": "skylight_roof_ratio",
            "units": "%",
            "value": 0.0
          },
          {
            "name": "space_type_baseline_model_space_type",
            "units": "ft^2",
            "value": 484375.97
          },
          {
            "name": "exterior_lighting_total_power",
            "units": "W",
            "value": 0.0
          },
          {
            "name": "exterior_lighting_total_consumption",
            "units": "kWh",
            "value": 0.0
          },
          {
            "name": "service_water_use_50_gal_min",
            "units": "gal/min",
            "value": 50.0
          },
          {
            "name": "inflation_approach",
            "value": "Constant Dollar"
          },
          {
            "name": "analysis_length",
            "units": "yrs",
            "value": 25
          },
          {
            "name": "annual_peak_electric_demand",
            "units": "kW",
            "value": 0.0
          },
          {
            "name": "first_year_capital_cost",
            "units": "$",
            "value": 0.0
          },
          {
            "name": "annual_utility_cost",
            "units": "$",
            "value": 0.0
          },
          {
            "name": "total_lifecycle_cost",
            "units": "$",
            "value": 0.0
          }
        ],
        "step_warnings": [
          "Annual Overview section failed and was skipped because: Optional not initialized. Detail on error follows.",
          "/home/julien/Software/Others/OpenStudio-resources/measures/openstudio_results/resources/os_lib_reporting.rb:501:in `get'\n/home/julien/Software/Others/OpenStudio-resources/measures/openstudio_results/resources/os_lib_reporting.rb:501:in `block in output_data_end_use_table'\n/home/julien/Software/Others/OpenStudio-resources/measures/openstudio_results/resources/os_lib_reporting.rb:491:in `each'\n/home/julien/Software/Others/OpenStudio-resources/measures/openstudio_results/resources/os_lib_reporting.rb:491:in `output_data_end_use_table'\n/home/julien/Software/Others/OpenStudio-resources/measures/openstudio_results/resources/os_lib_reporting.rb:258:in `annual_overview_section'\n(eval):1:in `block in run'\n/home/julien/Software/Others/OpenStudio-resources/measures/openstudio_results/measure.rb:237:in `eval'\n/home/julien/Software/Others/OpenStudio-resources/measures/openstudio_results/measure.rb:237:in `block in run'\n/home/julien/Software/Others/OpenStudio-resources/measures/openstudio_results/measure.rb:233:in `each'\n/home/julien/Software/Others/OpenStudio-resources/measures/openstudio_results/measure.rb:233:in `run'\n:/ruby/2.7.0/gems/openstudio-workflow-2.3.1/lib/openstudio/workflow/util/measure.rb:521:in `apply_measure'\n:/ruby/2.7.0/gems/openstudio-workflow-2.3.1/lib/openstudio/workflow/util/measure.rb:114:in `block in apply_measures'\n:/ruby/2.7.0/gems/openstudio-workflow-2.3.1/lib/openstudio/workflow/util/measure.rb:67:in `each_index'\n:/ruby/2.7.0/gems/openstudio-workflow-2.3.1/lib/openstudio/workflow/util/measure.rb:67:in `apply_measures'\n:/ruby/2.7.0/gems/openstudio-workflow-2.3.1/lib/openstudio/workflow/jobs/run_reporting_measures.rb:117:in `perform'\n:/ruby/2.7.0/gems/openstudio-workflow-2.3.1/lib/openstudio/workflow/run.rb:291:in `step'\n:/ruby/2.7.0/gems/openstudio-workflow-2.3.1/lib/openstudio/workflow/run.rb:233:in `run'\n:/openstudio_cli.rb:1173:in `execute'\n:/openstudio_cli.rb:803:in `execute'\n:/openstudio_cli.rb:1972:in `<main>'\neval:188:in `eval'\neval:188:in `require_embedded_absolute'\neval:173:in `block in require_embedded'\neval:167:in `each'\neval:167:in `require_embedded'\neval:126:in `require'\neval:3:in `<main>'",
          "An annual simulation was not run.  Cannot get annual timeseries data",
          "HVAC Load Profiles section returned false and was skipped.",
          "An annual simulation was not run. Cannot get annual timeseries data",
          "Zone Conditions section returned false and was skipped.",
          "Zone Equipment Detail section failed and was skipped because: undefined method `maxHeatingCapacity' for #<OpenStudio::Model::OptionalCoilHeatingDXVariableRefrigerantFlow:0x000055cd5b4ea6a0>. Detail on error follows.",
          "/home/julien/Software/Others/OpenStudio-resources/measures/openstudio_results/resources/Siz.ZoneHVACTerminalUnitVariableRefrigerantFlow.rb:3:in `maxHeatingCapacity'\n/home/julien/Software/Others/OpenStudio-resources/measures/openstudio_results/resources/Siz.HVACComponent.rb:6:in `maxHeatingCapacity'\n/home/julien/Software/Others/OpenStudio-resources/measures/openstudio_results/resources/os_lib_reporting.rb:745:in `public_send'\n/home/julien/Software/Others/OpenStudio-resources/measures/openstudio_results/resources/os_lib_reporting.rb:745:in `block in general_component_summary_logic'\n/home/julien/Software/Others/OpenStudio-resources/measures/openstudio_results/resources/os_lib_reporting.rb:738:in `each'\n/home/julien/Software/Others/OpenStudio-resources/measures/openstudio_results/resources/os_lib_reporting.rb:738:in `general_component_summary_logic'\n/home/julien/Software/Others/OpenStudio-resources/measures/openstudio_results/resources/os_lib_reporting.rb:1301:in `zone_equipment_component_summary_logic'\n/home/julien/Software/Others/OpenStudio-resources/measures/openstudio_results/resources/os_lib_reporting.rb:1335:in `block (2 levels) in zone_equipment_detail_section'\n/home/julien/Software/Others/OpenStudio-resources/measures/openstudio_results/resources/os_lib_reporting.rb:1333:in `each'\n/home/julien/Software/Others/OpenStudio-resources/measures/openstudio_results/resources/os_lib_reporting.rb:1333:in `block in zone_equipment_detail_section'\n/home/julien/Software/Others/OpenStudio-resources/measures/openstudio_results/resources/os_lib_reporting.rb:1325:in `each'\n/home/julien/Software/Others/OpenStudio-resources/measures/openstudio_results/resources/os_lib_reporting.rb:1325:in `zone_equipment_detail_section'\n(eval):1:in `block in run'\n/home/julien/Software/Others/OpenStudio-resources/measures/openstudio_results/measure.rb:237:in `eval'\n/home/julien/Software/Others/OpenStudio-resources/measures/openstudio_results/measure.rb:237:in `block in run'\n/home/julien/Software/Others/OpenStudio-resources/measures/openstudio_results/measure.rb:233:in `each'\n/home/julien/Software/Others/OpenStudio-resources/measures/openstudio_results/measure.rb:233:in `run'\n:/ruby/2.7.0/gems/openstudio-workflow-2.3.1/lib/openstudio/workflow/util/measure.rb:521:in `apply_measure'\n:/ruby/2.7.0/gems/openstudio-workflow-2.3.1/lib/openstudio/workflow/util/measure.rb:114:in `block in apply_measures'\n:/ruby/2.7.0/gems/openstudio-workflow-2.3.1/lib/openstudio/workflow/util/measure.rb:67:in `each_index'\n:/ruby/2.7.0/gems/openstudio-workflow-2.3.1/lib/openstudio/workflow/util/measure.rb:67:in `apply_measures'\n:/ruby/2.7.0/gems/openstudio-workflow-2.3.1/lib/openstudio/workflow/jobs/run_reporting_measures.rb:117:in `perform'\n:/ruby/2.7.0/gems/openstudio-workflow-2.3.1/lib/openstudio/workflow/run.rb:291:in `step'\n:/ruby/2.7.0/gems/openstudio-workflow-2.3.1/lib/openstudio/workflow/run.rb:233:in `run'\n:/openstudio_cli.rb:1173:in `execute'\n:/openstudio_cli.rb:803:in `execute'\n:/openstudio_cli.rb:1972:in `<main>'\neval:188:in `eval'\neval:188:in `require_embedded_absolute'\neval:173:in `block in require_embedded'\neval:167:in `each'\neval:167:in `require_embedded'\neval:126:in `require'\neval:3:in `<main>'",
          "Plant Loops Detail section failed and was skipped because: undefined local variable or method `compressorMotorEfficiency' for #<OpenStudio::Model::ChillerElectricEIR:0x000055cd5a29aab8>. Detail on error follows.",
          "/home/julien/Software/Others/OpenStudio-resources/measures/openstudio_results/resources/Siz.ChillerElectricEIR.rb:56:in `performanceCharacteristics'\n/home/julien/Software/Others/OpenStudio-resources/measures/openstudio_results/resources/Siz.HVACComponent.rb:94:in `performanceCharacteristics'\n/home/julien/Software/Others/OpenStudio-resources/measures/openstudio_results/resources/os_lib_reporting.rb:761:in `general_component_summary_logic'\n/home/julien/Software/Others/OpenStudio-resources/measures/openstudio_results/resources/os_lib_reporting.rb:1112:in `plant_loop_component_summary_logic'\n/home/julien/Software/Others/OpenStudio-resources/measures/openstudio_results/resources/os_lib_reporting.rb:1173:in `block (2 levels) in plant_loops_detail_section'\n/home/julien/Software/Others/OpenStudio-resources/measures/openstudio_results/resources/os_lib_reporting.rb:1154:in `each'\n/home/julien/Software/Others/OpenStudio-resources/measures/openstudio_results/resources/os_lib_reporting.rb:1154:in `block in plant_loops_detail_section'\n/home/julien/Software/Others/OpenStudio-resources/measures/openstudio_results/resources/os_lib_reporting.rb:1144:in `each'\n/home/julien/Software/Others/OpenStudio-resources/measures/openstudio_results/resources/os_lib_reporting.rb:1144:in `plant_loops_detail_section'\n(eval):1:in `block in run'\n/home/julien/Software/Others/OpenStudio-resources/measures/openstudio_results/measure.rb:237:in `eval'\n/home/julien/Software/Others/OpenStudio-resources/measures/openstudio_results/measure.rb:237:in `block in run'\n/home/julien/Software/Others/OpenStudio-resources/measures/openstudio_results/measure.rb:233:in `each'\n/home/julien/Software/Others/OpenStudio-resources/measures/openstudio_results/measure.rb:233:in `run'\n:/ruby/2.7.0/gems/openstudio-workflow-2.3.1/lib/openstudio/workflow/util/measure.rb:521:in `apply_measure'\n:/ruby/2.7.0/gems/openstudio-workflow-2.3.1/lib/openstudio/workflow/util/measure.rb:114:in `block in apply_measures'\n:/ruby/2.7.0/gems/openstudio-workflow-2.3.1/lib/openstudio/workflow/util/measure.rb:67:in `each_index'\n:/ruby/2.7.0/gems/openstudio-workflow-2.3.1/lib/openstudio/workflow/util/measure.rb:67:in `apply_measures'\n:/ruby/2.7.0/gems/openstudio-workflow-2.3.1/lib/openstudio/workflow/jobs/run_reporting_measures.rb:117:in `perform'\n:/ruby/2.7.0/gems/openstudio-workflow-2.3.1/lib/openstudio/workflow/run.rb:291:in `step'\n:/ruby/2.7.0/gems/openstudio-workflow-2.3.1/lib/openstudio/workflow/run.rb:233:in `run'\n:/openstudio_cli.rb:1173:in `execute'\n:/openstudio_cli.rb:803:in `execute'\n:/openstudio_cli.rb:1972:in `<main>'\neval:188:in `eval'\neval:188:in `require_embedded_absolute'\neval:173:in `block in require_embedded'\neval:167:in `each'\neval:167:in `require_embedded'\neval:126:in `require'\neval:3:in `<main>'"
        ]
      }
    }
  ],
  "weather_file": "../../weatherdata/USA_IL_Chicago-OHare.Intl.AP.725300_TMY3.epw"
}