{
  "completed_status": "Fail",
  "current_step": 0,
  "eplusout_err": [
    "Program Version,EnergyPlus, Version 22.2.0-56f3a890b4, ",
    "   ************* Beginning Zone Sizing Calculations",
    "   ** Warning ** ProcessScheduleInput: Schedule:Day:Interval=\"SCHEDULE DAY 2\", Blank Schedule Type Limits Name input -- will not be validated.",
    "   ** Warning ** ProcessScheduleInput: Schedule:Day:Interval=\"SCHEDULE DAY 3\", Blank Schedule Type Limits Name input -- will not be validated.",
    "   ** Warning ** ProcessScheduleInput: Schedule:Day:Interval=\"SCHEDULE DAY 4\", Blank Schedule Type Limits Name input -- will not be validated.",
    "   ** Warning ** ProcessScheduleInput: Schedule:Day:Interval=\"SCHEDULE DAY 5\", Blank Schedule Type Limits Name input -- will not be validated.",
    "   ** Warning ** ProcessScheduleInput: Schedule:Constant=\"ALWAYS OFF DISCRETE\", Blank Schedule Type Limits Name input -- will not be validated.",
    "   ** Warning ** ProcessScheduleInput: Schedule:Constant=\"ALWAYS ON CONTINUOUS\", Blank Schedule Type Limits Name input -- will not be validated.",
    "   ** Warning ** GetHTSurfaceData: Surfaces with interface to Ground found but no \"Ground Temperatures\" were input.",
    "   **   ~~~   ** Found first in surface=SURFACE 7",
    "   **   ~~~   ** Defaults, constant throughout the year of (18.0) will be used.",
    "   ** Warning ** CheckUsedConstructions: There are 6 nominally unused constructions in input.",
    "   **   ~~~   ** For explicit details on each unused construction, use Output:Diagnostics,DisplayExtraWarnings;",
    "   ** Warning ** GetDXCoils: Coil:Cooling:DX:SingleSpeed=\"COIL COOLING DX SINGLE SPEED 4\" curve values",
    "   **   ~~~   ** ... Total Cooling Capacity Function of Temperature Curve Name = CURVE BIQUADRATIC 7 output is not equal to 1.0 (+ or - 10%) at rated conditions.",
    "   **   ~~~   ** ... Curve output at rated conditions = 1.438",
    "   ** Warning ** GetDXCoils: Coil:Cooling:DX:SingleSpeed=\"COIL COOLING DX SINGLE SPEED 1\" curve values",
    "   **   ~~~   ** ... Total Cooling Capacity Function of Temperature Curve Name = CURVE BIQUADRATIC 1 output is not equal to 1.0 (+ or - 10%) at rated conditions.",
    "   **   ~~~   ** ... Curve output at rated conditions = 1.438",
    "   ** Warning ** GetDXCoils: Coil:Cooling:DX:SingleSpeed=\"COIL COOLING DX SINGLE SPEED 10\" curve values",
    "   **   ~~~   ** ... Total Cooling Capacity Function of Temperature Curve Name = CURVE BIQUADRATIC 19 output is not equal to 1.0 (+ or - 10%) at rated conditions.",
    "   **   ~~~   ** ... Curve output at rated conditions = 1.438",
    "   ** Warning ** GetDXCoils: Coil:Cooling:DX:SingleSpeed=\"COIL COOLING DX SINGLE SPEED 6\" curve values",
    "   **   ~~~   ** ... Total Cooling Capacity Function of Temperature Curve Name = CURVE BIQUADRATIC 11 output is not equal to 1.0 (+ or - 10%) at rated conditions.",
    "   **   ~~~   ** ... Curve output at rated conditions = 1.438",
    "   ** Warning ** GetDXCoils: Coil:Cooling:DX:SingleSpeed=\"COIL COOLING DX SINGLE SPEED 9\" curve values",
    "   **   ~~~   ** ... Total Cooling Capacity Function of Temperature Curve Name = CURVE BIQUADRATIC 17 output is not equal to 1.0 (+ or - 10%) at rated conditions.",
    "   **   ~~~   ** ... Curve output at rated conditions = 1.438",
    "   ** Warning ** GetDXCoils: Coil:Cooling:DX:SingleSpeed=\"COIL COOLING DX SINGLE SPEED 5\" curve values",
    "   **   ~~~   ** ... Total Cooling Capacity Function of Temperature Curve Name = CURVE BIQUADRATIC 9 output is not equal to 1.0 (+ or - 10%) at rated conditions.",
    "   **   ~~~   ** ... Curve output at rated conditions = 1.438",
    "   ** Warning ** GetDXCoils: Coil:Cooling:DX:SingleSpeed=\"COIL COOLING DX SINGLE SPEED 3\" curve values",
    "   **   ~~~   ** ... Total Cooling Capacity Function of Temperature Curve Name = CURVE BIQUADRATIC 5 output is not equal to 1.0 (+ or - 10%) at rated conditions.",
    "   **   ~~~   ** ... Curve output at rated conditions = 1.438",
    "   ** Warning ** GetDXCoils: Coil:Cooling:DX:SingleSpeed=\"COIL COOLING DX SINGLE SPEED 8\" curve values",
    "   **   ~~~   ** ... Total Cooling Capacity Function of Temperature Curve Name = CURVE BIQUADRATIC 15 output is not equal to 1.0 (+ or - 10%) at rated conditions.",
    "   **   ~~~   ** ... Curve output at rated conditions = 1.438",
    "   ** Warning ** GetDXCoils: Coil:Cooling:DX:SingleSpeed=\"COIL COOLING DX SINGLE SPEED 2\" curve values",
    "   **   ~~~   ** ... Total Cooling Capacity Function of Temperature Curve Name = CURVE BIQUADRATIC 3 output is not equal to 1.0 (+ or - 10%) at rated conditions.",
    "   **   ~~~   ** ... Curve output at rated conditions = 1.438",
    "   ** Warning ** GetDXCoils: Coil:Cooling:DX:SingleSpeed=\"COIL COOLING DX SINGLE SPEED 7\" curve values",
    "   **   ~~~   ** ... Total Cooling Capacity Function of Temperature Curve Name = CURVE BIQUADRATIC 13 output is not equal to 1.0 (+ or - 10%) at rated conditions.",
    "   **   ~~~   ** ... Curve output at rated conditions = 1.438",
    "   ** Warning ** GetSimpleAirModelInputs: ZoneInfiltration:DesignFlowRate=\"STORY 1 CORE SPACE BASELINE MODEL INFILTRATION\", Design Flow Rate Calculation Method specifies Flow Rate per Exterior Surface Area, but Exterior Surface Area = 0.  0 Infiltration will result.",
    "   ** Severe  ** ZoneHVAC:PackagedTerminalHeatPump = ZONE HVAC PACKAGED TERMINAL HEAT PUMP 4",
    "   **   ~~~   ** Fan type must be Fan:OnOff or Fan:SystemModel when Supply Air Fan Operating Mode Schedule Name is blank.",
    "   **  Fatal  ** getUnitarySystemInputData: previous errors cause termination. Check inputs",
    "   ...Summary of Errors that led to program termination:",
    "   ..... Reference severe error count=1",
    "   ..... Last severe error=ZoneHVAC:PackagedTerminalHeatPump = ZONE HVAC PACKAGED TERMINAL HEAT PUMP 4",
    "   ************* Warning:  Node connection errors not checked - most system input has not been read (see previous warning).",
    "   ************* Fatal error -- final processing.  Program exited before simulations began.  See previous error messages.",
    "   *************",
    "   ************* ===== Final Error Summary =====",
    "   ************* The following error categories occurred.  Consider correcting or noting.",
    "   ************* Nominally Unused Constructions",
    "   ************* ..The nominally unused constructions warning is provided to alert you to potential conditions that can cause",
    "   ************* ..extra time during simulation. Each construction is calculated by the algorithm indicated in the HeatBalanceAlgorithm",
    "   ************* ..object. You may remove the constructions indicated (when you use the DisplayExtraWarnings option).",
    "   *************",
    "   ************* EnergyPlus Warmup Error Summary. During Warmup: 0 Warning; 0 Severe Errors.",
    "   ************* EnergyPlus Sizing Error Summary. During Sizing: 19 Warning; 1 Severe Errors.",
    "   ************* EnergyPlus Terminated--Fatal Error Detected. 19 Warning; 1 Severe Errors; "
  ],
  "file_paths": [
    "/home/runner/work/OpenStudio-resources/OpenStudio-resources/testruns/baseline_sys02.osm/generated_files",
    "./files",
    "./weather",
    "../../files",
    "../../weather",
    "./"
  ],
  "seed_file": "in.osm",
  "steps": [
    {
      "arguments": {
      },
      "measure_dir_name": "openstudio_results"
    }
  ],
  "weather_file": "../../weatherdata/USA_IL_Chicago-OHare.Intl.AP.725300_TMY3.epw"
}