{
   "completed_at" : "20180205T201215Z",
   "completed_status" : "Success",
   "current_step" : 1,
   "eplusout_err" : "Program Version,EnergyPlus, Version 8.8.0-d5f2442b35, YMD=2018.02.05 20:11,IDD_Version 8.8.0\n   ************* Beginning Zone Sizing Calculations\n   ** Warning ** ProcessScheduleInput: Schedule:Day:Interval=\"SCHEDULE DAY 2\", Blank Schedule Type Limits Name input -- will not be validated.\n   ** Warning ** ProcessScheduleInput: Schedule:Day:Interval=\"SCHEDULE DAY 3\", Blank Schedule Type Limits Name input -- will not be validated.\n   ** Warning ** ProcessScheduleInput: Schedule:Day:Interval=\"SCHEDULE DAY 4\", Blank Schedule Type Limits Name input -- will not be validated.\n   ** Warning ** ProcessScheduleInput: Schedule:Day:Interval=\"SCHEDULE DAY 5\", Blank Schedule Type Limits Name input -- will not be validated.\n   ** Warning ** ProcessScheduleInput: Schedule:Constant=\"ALWAYS OFF DISCRETE\", Blank Schedule Type Limits Name input -- will not be validated.\n   ** Warning ** ProcessScheduleInput: Schedule:Constant=\"ALWAYS ON CONTINUOUS\", Blank Schedule Type Limits Name input -- will not be validated.\n   ** Warning ** GetHTSurfaceData: Surfaces with interface to Ground found but no \"Ground Temperatures\" were input.\n   **   ~~~   ** Found first in surface=SURFACE 25\n   **   ~~~   ** Defaults, constant throughout the year of (18.0) will be used.\n   ** Warning ** CheckUsedConstructions: There are 6 nominally unused constructions in input.\n   **   ~~~   ** For explicit details on each unused construction, use Output:Diagnostics,DisplayExtraWarnings;\n   ** Warning ** GetSimpleAirModelInputs: ZoneInfiltration:DesignFlowRate=\"STORY 1 CORE THERMAL ZONE BASELINE MODEL INFILTRATION\", Design Flow Rate Calculation Method specifies Flow per Exterior Surface Area, but Exterior Surface Area = 0.  0 Infiltration will result.\n   ************* Beginning System Sizing Calculations\n   ** Warning ** Output:Meter: invalid Key Name=\"GAS:FACILITY\" - not found.\n   ** Warning ** Output:Meter: invalid Key Name=\"DISTRICTCOOLING:FACILITY\" - not found.\n   ** Warning ** Output:Meter: invalid Key Name=\"DISTRICTHEATING:FACILITY\" - not found.\n   ** Warning ** Output:Meter:MeterFileOnly: invalid Key Name=\"GAS:FACILITY\" - not found.\n   ** Warning ** Output:Meter:MeterFileOnly requested for \"Electricity:Facility\" (TimeStep), already on \"Output:Meter\". Will report to both eplusout.eso and eplusout.mtr\n   ************* Testing Individual Branch Integrity\n   ************* All Branches passed integrity testing\n   ************* Testing Individual Supply Air Path Integrity\n   ************* All Supply Air Paths passed integrity testing\n   ************* Testing Individual Return Air Path Integrity\n   ************* All Return Air Paths passed integrity testing\n   ************* No node connection errors were found.\n   ************* Beginning Simulation\n   ** Warning ** Processing Monthly Tabular Reports: Variable names not valid for this simulation\n   **   ~~~   ** ...use Output:Diagnostics,DisplayExtraWarnings; to show more details on individual variables.\n   ** Warning ** SimHVAC: Maximum iterations (20) exceeded for all HVAC loops, at RUN PERIOD 1, 03/08 13:38 - 13:45\n   **   ~~~   ** The solution for one or more of the Air Loop HVAC systems did not appear to converge\n   **   ~~~   ** ...use Output:Diagnostics,DisplayExtraWarnings; to show more details on each max iteration exceeded.\n   ** Warning ** SimHVAC: Maximum iterations (20) exceeded for all HVAC loops, at RUN PERIOD 1, 03/08 14:00 - 14:15\n   **   ~~~   ** The solution for one or more of the Air Loop HVAC systems did not appear to converge\n   ** Warning ** SimHVAC: Maximum iterations (20) exceeded for all HVAC loops, at RUN PERIOD 1, 03/08 14:00 - 14:05\n   **   ~~~   ** The solution for one or more of the Air Loop HVAC systems did not appear to converge\n   ** Warning ** SimHVAC: Maximum iterations (20) exceeded for all HVAC loops, at RUN PERIOD 1, 03/08 14:05 - 14:10\n   **   ~~~   ** The solution for one or more of the Air Loop HVAC systems did not appear to converge\n   ** Warning ** SimHVAC: Maximum iterations (20) exceeded for all HVAC loops, at RUN PERIOD 1, 03/08 14:10 - 14:15\n   **   ~~~   ** The solution for one or more of the Air Loop HVAC systems did not appear to converge\n   ** Warning ** SimHVAC: Maximum iterations (20) exceeded for all HVAC loops, at RUN PERIOD 1, 04/24 17:30 - 17:45\n   **   ~~~   ** The solution for one or more of the Air Loop HVAC systems did not appear to converge\n   ** Warning ** SimHVAC: Maximum iterations (20) exceeded for all HVAC loops, at RUN PERIOD 1, 04/24 17:30 - 17:38\n   **   ~~~   ** The solution for one or more of the Air Loop HVAC systems did not appear to converge\n   ** Warning ** SimHVAC: Maximum iterations (20) exceeded for all HVAC loops, at RUN PERIOD 1, 04/24 17:38 - 17:45\n   **   ~~~   ** The solution for one or more of the Air Loop HVAC systems did not appear to converge\n   ** Warning ** SimHVAC: Maximum iterations (20) exceeded for all HVAC loops, at RUN PERIOD 1, 05/08 14:20 - 14:25\n   **   ~~~   ** The solution for one or more of the Air Loop HVAC systems did not appear to converge\n   ** Warning ** SimHVAC: Maximum iterations (20) exceeded for all HVAC loops, at RUN PERIOD 1, 10/06 11:00 - 11:15\n   **   ~~~   ** The solution for one or more of the Air Loop HVAC systems did not appear to converge\n   ** Warning ** SimHVAC: Maximum iterations (20) exceeded for all HVAC loops, at RUN PERIOD 1, 10/06 16:45 - 17:00\n   **   ~~~   ** The solution for one or more of the Air Loop HVAC systems did not appear to converge\n   ** Warning ** SimHVAC: Maximum iterations (20) exceeded for all HVAC loops, at RUN PERIOD 1, 10/13 08:45 - 09:00\n   **   ~~~   ** The solution for one or more of the Air Loop HVAC systems did not appear to converge\n   ** Warning ** SimHVAC: Maximum iterations (20) exceeded for all HVAC loops, at RUN PERIOD 1, 10/23 13:19 - 13:22\n   **   ~~~   ** The solution for one or more of the Air Loop HVAC systems did not appear to converge\n   ** Warning ** SimHVAC: Maximum iterations (20) exceeded for all HVAC loops, at RUN PERIOD 1, 10/23 13:23 - 13:26\n   **   ~~~   ** The solution for one or more of the Air Loop HVAC systems did not appear to converge\n   ************* Simulation Error Summary *************\n   ************* There are 2 unused schedules in input.\n   ************* There are 2 unused week schedules in input.\n   ************* There are 6 unused day schedules in input.\n   ************* Use Output:Diagnostics,DisplayUnusedSchedules; to see them.\n   *************\n   ************* ===== Recurring Error Summary =====\n   ************* The following recurring error messages occurred.\n   *************\n   *************  ** Warning ** SimHVAC: Exceeding Maximum iterations for all HVAC loops, during RUN PERIOD 1 continues\n   *************  **   ~~~   **   This error occurred 2 total times;\n   *************  **   ~~~   **   during Warmup 0 times;\n   *************  **   ~~~   **   during Sizing 0 times.\n   *************\n   *************\n   ************* ===== Final Error Summary =====\n   ************* The following error categories occurred.  Consider correcting or noting.\n   ************* Nominally Unused Constructions\n   ************* ..The nominally unused constructions warning is provided to alert you to potential conditions that can cause\n   ************* ..extra time during simulation. Each construction is calculated by the algorithm indicated in the HeatBalanceAlgorithm\n   ************* ..object. You may remove the constructions indicated (when you use the DisplayExtraWarnings option).\n   *************\n   ************* EnergyPlus Warmup Error Summary. During Warmup: 0 Warning; 0 Severe Errors.\n   ************* EnergyPlus Sizing Error Summary. During Sizing: 9 Warning; 0 Severe Errors.\n   ************* EnergyPlus Completed Successfully-- 31 Warning; 0 Severe Errors; Elapsed Time=00hr 00min 15.96sec\n",
   "hash" : "101A6E1C",
   "seed_file" : "in.osm",
   "started_at" : "20180205T201139Z",
   "steps" : [
      {
         "arguments" : {},
         "measure_dir_name" : "openstudio_results",
         "result" : {
            "completed_at" : "20180205T201212Z",
            "measure_class_name" : "OpenStudioResults",
            "measure_display_name" : "OpenStudio Results",
            "measure_name" : "openstudio_results",
            "measure_taxonomy" : "Reporting.QAQC",
            "measure_type" : "ReportingMeasure",
            "measure_uid" : "a25386cd-60e4-46bc-8b11-c755f379d916",
            "measure_version_id" : "5b8e57e8-830a-43ae-90d4-a41d97698d95",
            "measure_version_modified" : "20171219T161835Z",
            "measure_xml_checksum" : "557BF06F",
            "started_at" : "20180205T201207Z",
            "stderr" : "",
            "stdout" : "",
            "step_errors" : [],
            "step_files" : [
               "/var/simdata/openstudio/OpenStudio-resources/testruns/baseline_sys06.rb/run/000_openstudio_results/report.html"
            ],
            "step_final_condition" : "Generated report with 21 sections to ./report.html.",
            "step_info" : [],
            "step_initial_condition" : "Gathering data from EnergyPlus SQL file and OSM model.",
            "step_result" : "Success",
            "step_values" : [
               {
                  "name" : "building_summary_section",
                  "value" : true
               },
               {
                  "name" : "annual_overview_section",
                  "value" : true
               },
               {
                  "name" : "monthly_overview_section",
                  "value" : true
               },
               {
                  "name" : "utility_bills_rates_section",
                  "value" : true
               },
               {
                  "name" : "envelope_section_section",
                  "value" : true
               },
               {
                  "name" : "space_type_breakdown_section",
                  "value" : true
               },
               {
                  "name" : "space_type_details_section",
                  "value" : true
               },
               {
                  "name" : "interior_lighting_section",
                  "value" : true
               },
               {
                  "name" : "plug_loads_section",
                  "value" : true
               },
               {
                  "name" : "exterior_light_section",
                  "value" : true
               },
               {
                  "name" : "water_use_section",
                  "value" : true
               },
               {
                  "name" : "hvac_load_profile",
                  "value" : true
               },
               {
                  "name" : "zone_condition_section",
                  "value" : true
               },
               {
                  "name" : "zone_summary_section",
                  "value" : true
               },
               {
                  "name" : "zone_equipment_detail_section",
                  "value" : true
               },
               {
                  "name" : "air_loops_detail_section",
                  "value" : true
               },
               {
                  "name" : "plant_loops_detail_section",
                  "value" : true
               },
               {
                  "name" : "outdoor_air_section",
                  "value" : true
               },
               {
                  "name" : "cost_summary_section",
                  "value" : true
               },
               {
                  "name" : "source_energy_section",
                  "value" : true
               },
               {
                  "name" : "schedules_overview_section",
                  "value" : true
               },
               {
                  "display_name" : "Building 1",
                  "name" : "building_name",
                  "value" : "building_name"
               },
               {
                  "name" : "total_site_energy",
                  "units" : "kBtu",
                  "value" : 6701152.3441559812
               },
               {
                  "name" : "net_site_energy",
                  "units" : "kBtu",
                  "value" : 6701152.3441559812
               },
               {
                  "name" : "total_building_area",
                  "units" : "ft^2",
                  "value" : 107639.10416709722
               },
               {
                  "name" : "total_site_eui",
                  "units" : "kBtu/ft^2",
                  "value" : 62.255742427521689
               },
               {
                  "name" : "eui",
                  "units" : "kBtu/ft^2",
                  "value" : 62.255742427521689
               },
               {
                  "name" : "unmet_hours_during_heating",
                  "units" : "hr",
                  "value" : 0
               },
               {
                  "name" : "unmet_hours_during_cooling",
                  "units" : "hr",
                  "value" : 0
               },
               {
                  "name" : "unmet_hours_during_occupied_heating",
                  "units" : "hr",
                  "value" : 0
               },
               {
                  "name" : "unmet_hours_during_occupied_cooling",
                  "units" : "hr",
                  "value" : 0
               },
               {
                  "name" : "unmet_hours_tolerance_heating",
                  "units" : "F",
                  "value" : 0.35999999999999999
               },
               {
                  "name" : "unmet_hours_tolerance_cooling",
                  "units" : "F",
                  "value" : 0.35999999999999999
               },
               {
                  "name" : "end_use_heating",
                  "units" : "kBtu",
                  "value" : 3945743.715521933
               },
               {
                  "name" : "end_use_cooling",
                  "units" : "kBtu",
                  "value" : 435360.83787351602
               },
               {
                  "name" : "end_use_interior_lighting",
                  "units" : "kBtu",
                  "value" : 1044617.6828109163
               },
               {
                  "name" : "end_use_exterior_lighting",
                  "units" : "kBtu",
                  "value" : 0
               },
               {
                  "name" : "end_use_interior_equipment",
                  "units" : "kBtu",
                  "value" : 1044617.6828109163
               },
               {
                  "name" : "end_use_exterior_equipment",
                  "units" : "kBtu",
                  "value" : 0
               },
               {
                  "name" : "end_use_fans",
                  "units" : "kBtu",
                  "value" : 230812.42513869904
               },
               {
                  "name" : "end_use_pumps",
                  "units" : "kBtu",
                  "value" : 0
               },
               {
                  "name" : "end_use_heat_rejection",
                  "units" : "kBtu",
                  "value" : 0
               },
               {
                  "name" : "end_use_humidification",
                  "units" : "kBtu",
                  "value" : 0
               },
               {
                  "name" : "end_use_heat_recovery",
                  "units" : "kBtu",
                  "value" : 0
               },
               {
                  "name" : "end_use_water_systems",
                  "units" : "kBtu",
                  "value" : 0
               },
               {
                  "name" : "end_use_refrigeration",
                  "units" : "kBtu",
                  "value" : 0
               },
               {
                  "name" : "end_use_generators",
                  "units" : "kBtu",
                  "value" : 0
               },
               {
                  "name" : "fuel_electricity",
                  "units" : "kBtu",
                  "value" : 6701152.3441559812
               },
               {
                  "name" : "fuel_natural_gas",
                  "units" : "kBtu",
                  "value" : 0
               },
               {
                  "name" : "fuel_additional_fuel",
                  "units" : "kBtu",
                  "value" : 0
               },
               {
                  "name" : "fuel_district_cooling",
                  "units" : "kBtu",
                  "value" : 0
               },
               {
                  "name" : "fuel_district_heating",
                  "units" : "kBtu",
                  "value" : 0
               },
               {
                  "name" : "end_use_electricity_heating",
                  "units" : "kWh",
                  "value" : 1156383.3333333333
               },
               {
                  "name" : "end_use_electricity_cooling",
                  "units" : "kWh",
                  "value" : 127591.66666666667
               },
               {
                  "name" : "end_use_electricity_interior_lighting",
                  "units" : "kWh",
                  "value" : 306147.22222222219
               },
               {
                  "name" : "end_use_electricity_exterior_lighting",
                  "units" : "kWh",
                  "value" : 0
               },
               {
                  "name" : "end_use_electricity_interior_equipment",
                  "units" : "kWh",
                  "value" : 306147.22222222219
               },
               {
                  "name" : "end_use_electricity_exterior_equipment",
                  "units" : "kWh",
                  "value" : 0
               },
               {
                  "name" : "end_use_electricity_fans",
                  "units" : "kWh",
                  "value" : 67644.444444444453
               },
               {
                  "name" : "end_use_electricity_pumps",
                  "units" : "kWh",
                  "value" : 0
               },
               {
                  "name" : "end_use_electricity_heat_rejection",
                  "units" : "kWh",
                  "value" : 0
               },
               {
                  "name" : "end_use_electricity_humidification",
                  "units" : "kWh",
                  "value" : 0
               },
               {
                  "name" : "end_use_electricity_heat_recovery",
                  "units" : "kWh",
                  "value" : 0
               },
               {
                  "name" : "end_use_electricity_water_systems",
                  "units" : "kWh",
                  "value" : 0
               },
               {
                  "name" : "end_use_electricity_refrigeration",
                  "units" : "kWh",
                  "value" : 0
               },
               {
                  "name" : "end_use_electricity_generators",
                  "units" : "kWh",
                  "value" : 0
               },
               {
                  "name" : "end_use_natural_gas_heating",
                  "units" : "therms",
                  "value" : 0
               },
               {
                  "name" : "end_use_natural_gas_cooling",
                  "units" : "therms",
                  "value" : 0
               },
               {
                  "name" : "end_use_natural_gas_interior_lighting",
                  "units" : "therms",
                  "value" : 0
               },
               {
                  "name" : "end_use_natural_gas_exterior_lighting",
                  "units" : "therms",
                  "value" : 0
               },
               {
                  "name" : "end_use_natural_gas_interior_equipment",
                  "units" : "therms",
                  "value" : 0
               },
               {
                  "name" : "end_use_natural_gas_exterior_equipment",
                  "units" : "therms",
                  "value" : 0
               },
               {
                  "name" : "end_use_natural_gas_fans",
                  "units" : "therms",
                  "value" : 0
               },
               {
                  "name" : "end_use_natural_gas_pumps",
                  "units" : "therms",
                  "value" : 0
               },
               {
                  "name" : "end_use_natural_gas_heat_rejection",
                  "units" : "therms",
                  "value" : 0
               },
               {
                  "name" : "end_use_natural_gas_humidification",
                  "units" : "therms",
                  "value" : 0
               },
               {
                  "name" : "end_use_natural_gas_heat_recovery",
                  "units" : "therms",
                  "value" : 0
               },
               {
                  "name" : "end_use_natural_gas_water_systems",
                  "units" : "therms",
                  "value" : 0
               },
               {
                  "name" : "end_use_natural_gas_refrigeration",
                  "units" : "therms",
                  "value" : 0
               },
               {
                  "name" : "end_use_natural_gas_generators",
                  "units" : "therms",
                  "value" : 0
               },
               {
                  "name" : "electricity_heating_ip",
                  "units" : "kWh",
                  "value" : 1156384.1666666667
               },
               {
                  "name" : "electricity_cooling_ip",
                  "units" : "kWh",
                  "value" : 127590.94059824166
               },
               {
                  "name" : "electricity_interior_lighting_ip",
                  "units" : "kWh",
                  "value" : 306147.13888888888
               },
               {
                  "name" : "electricity_exterior_lighting_ip",
                  "units" : "kWh",
                  "value" : 0
               },
               {
                  "name" : "electricity_interior_equipment_ip",
                  "units" : "kWh",
                  "value" : 306147.13888888888
               },
               {
                  "name" : "electricity_exterior_equipment_ip",
                  "units" : "kWh",
                  "value" : 0
               },
               {
                  "name" : "electricity_fans_ip",
                  "units" : "kWh",
                  "value" : 67645.055555555547
               },
               {
                  "name" : "electricity_pumps_ip",
                  "units" : "kWh",
                  "value" : 0
               },
               {
                  "name" : "electricity_heat_rejection_ip",
                  "units" : "kWh",
                  "value" : 0
               },
               {
                  "name" : "electricity_humidification_ip",
                  "units" : "kWh",
                  "value" : 0
               },
               {
                  "name" : "electricity_heat_recovery_ip",
                  "units" : "kWh",
                  "value" : 0
               },
               {
                  "name" : "electricity_water_systems_ip",
                  "units" : "kWh",
                  "value" : 0
               },
               {
                  "name" : "electricity_refrigeration_ip",
                  "units" : "kWh",
                  "value" : 0
               },
               {
                  "name" : "electricity_generators_ip",
                  "units" : "kWh",
                  "value" : 0
               },
               {
                  "name" : "electricity_ip",
                  "units" : "kWh",
                  "value" : 1963914.4405982415
               },
               {
                  "name" : "natural_gas_heating_ip",
                  "units" : "MBtu",
                  "value" : 0
               },
               {
                  "name" : "natural_gas_cooling_ip",
                  "units" : "MBtu",
                  "value" : 0
               },
               {
                  "name" : "natural_gas_interior_lighting_ip",
                  "units" : "MBtu",
                  "value" : 0
               },
               {
                  "name" : "natural_gas_exterior_lighting_ip",
                  "units" : "MBtu",
                  "value" : 0
               },
               {
                  "name" : "natural_gas_interior_equipment_ip",
                  "units" : "MBtu",
                  "value" : 0
               },
               {
                  "name" : "natural_gas_exterior_equipment_ip",
                  "units" : "MBtu",
                  "value" : 0
               },
               {
                  "name" : "natural_gas_fans_ip",
                  "units" : "MBtu",
                  "value" : 0
               },
               {
                  "name" : "natural_gas_pumps_ip",
                  "units" : "MBtu",
                  "value" : 0
               },
               {
                  "name" : "natural_gas_heat_rejection_ip",
                  "units" : "MBtu",
                  "value" : 0
               },
               {
                  "name" : "natural_gas_humidification_ip",
                  "units" : "MBtu",
                  "value" : 0
               },
               {
                  "name" : "natural_gas_heat_recovery_ip",
                  "units" : "MBtu",
                  "value" : 0
               },
               {
                  "name" : "natural_gas_water_systems_ip",
                  "units" : "MBtu",
                  "value" : 0
               },
               {
                  "name" : "natural_gas_refrigeration_ip",
                  "units" : "MBtu",
                  "value" : 0
               },
               {
                  "name" : "natural_gas_generators_ip",
                  "units" : "MBtu",
                  "value" : 0
               },
               {
                  "name" : "natural_gas_ip",
                  "units" : "MBtu",
                  "value" : 0
               },
               {
                  "name" : "additional_fuel_heating_ip",
                  "units" : "MBtu",
                  "value" : 0
               },
               {
                  "name" : "additional_fuel_cooling_ip",
                  "units" : "MBtu",
                  "value" : 0
               },
               {
                  "name" : "additional_fuel_interior_lighting_ip",
                  "units" : "MBtu",
                  "value" : 0
               },
               {
                  "name" : "additional_fuel_exterior_lighting_ip",
                  "units" : "MBtu",
                  "value" : 0
               },
               {
                  "name" : "additional_fuel_interior_equipment_ip",
                  "units" : "MBtu",
                  "value" : 0
               },
               {
                  "name" : "additional_fuel_exterior_equipment_ip",
                  "units" : "MBtu",
                  "value" : 0
               },
               {
                  "name" : "additional_fuel_fans_ip",
                  "units" : "MBtu",
                  "value" : 0
               },
               {
                  "name" : "additional_fuel_pumps_ip",
                  "units" : "MBtu",
                  "value" : 0
               },
               {
                  "name" : "additional_fuel_heat_rejection_ip",
                  "units" : "MBtu",
                  "value" : 0
               },
               {
                  "name" : "additional_fuel_humidification_ip",
                  "units" : "MBtu",
                  "value" : 0
               },
               {
                  "name" : "additional_fuel_heat_recovery_ip",
                  "units" : "MBtu",
                  "value" : 0
               },
               {
                  "name" : "additional_fuel_water_systems_ip",
                  "units" : "MBtu",
                  "value" : 0
               },
               {
                  "name" : "additional_fuel_refrigeration_ip",
                  "units" : "MBtu",
                  "value" : 0
               },
               {
                  "name" : "additional_fuel_generators_ip",
                  "units" : "MBtu",
                  "value" : 0
               },
               {
                  "name" : "additional_fuel_ip",
                  "units" : "MBtu",
                  "value" : 0
               },
               {
                  "name" : "district_cooling_heating_ip",
                  "units" : "MBtu",
                  "value" : 0
               },
               {
                  "name" : "district_cooling_cooling_ip",
                  "units" : "MBtu",
                  "value" : 0
               },
               {
                  "name" : "district_cooling_interior_lighting_ip",
                  "units" : "MBtu",
                  "value" : 0
               },
               {
                  "name" : "district_cooling_exterior_lighting_ip",
                  "units" : "MBtu",
                  "value" : 0
               },
               {
                  "name" : "district_cooling_interior_equipment_ip",
                  "units" : "MBtu",
                  "value" : 0
               },
               {
                  "name" : "district_cooling_exterior_equipment_ip",
                  "units" : "MBtu",
                  "value" : 0
               },
               {
                  "name" : "district_cooling_fans_ip",
                  "units" : "MBtu",
                  "value" : 0
               },
               {
                  "name" : "district_cooling_pumps_ip",
                  "units" : "MBtu",
                  "value" : 0
               },
               {
                  "name" : "district_cooling_heat_rejection_ip",
                  "units" : "MBtu",
                  "value" : 0
               },
               {
                  "name" : "district_cooling_humidification_ip",
                  "units" : "MBtu",
                  "value" : 0
               },
               {
                  "name" : "district_cooling_heat_recovery_ip",
                  "units" : "MBtu",
                  "value" : 0
               },
               {
                  "name" : "district_cooling_water_systems_ip",
                  "units" : "MBtu",
                  "value" : 0
               },
               {
                  "name" : "district_cooling_refrigeration_ip",
                  "units" : "MBtu",
                  "value" : 0
               },
               {
                  "name" : "district_cooling_generators_ip",
                  "units" : "MBtu",
                  "value" : 0
               },
               {
                  "name" : "district_cooling_ip",
                  "units" : "MBtu",
                  "value" : 0
               },
               {
                  "name" : "district_heating_heating_ip",
                  "units" : "MBtu",
                  "value" : 0
               },
               {
                  "name" : "district_heating_cooling_ip",
                  "units" : "MBtu",
                  "value" : 0
               },
               {
                  "name" : "district_heating_interior_lighting_ip",
                  "units" : "MBtu",
                  "value" : 0
               },
               {
                  "name" : "district_heating_exterior_lighting_ip",
                  "units" : "MBtu",
                  "value" : 0
               },
               {
                  "name" : "district_heating_interior_equipment_ip",
                  "units" : "MBtu",
                  "value" : 0
               },
               {
                  "name" : "district_heating_exterior_equipment_ip",
                  "units" : "MBtu",
                  "value" : 0
               },
               {
                  "name" : "district_heating_fans_ip",
                  "units" : "MBtu",
                  "value" : 0
               },
               {
                  "name" : "district_heating_pumps_ip",
                  "units" : "MBtu",
                  "value" : 0
               },
               {
                  "name" : "district_heating_heat_rejection_ip",
                  "units" : "MBtu",
                  "value" : 0
               },
               {
                  "name" : "district_heating_humidification_ip",
                  "units" : "MBtu",
                  "value" : 0
               },
               {
                  "name" : "district_heating_heat_recovery_ip",
                  "units" : "MBtu",
                  "value" : 0
               },
               {
                  "name" : "district_heating_water_systems_ip",
                  "units" : "MBtu",
                  "value" : 0
               },
               {
                  "name" : "district_heating_refrigeration_ip",
                  "units" : "MBtu",
                  "value" : 0
               },
               {
                  "name" : "district_heating_generators_ip",
                  "units" : "MBtu",
                  "value" : 0
               },
               {
                  "name" : "district_heating_ip",
                  "units" : "MBtu",
                  "value" : 0
               },
               {
                  "name" : "water_heating_ip",
                  "units" : "MBtu",
                  "value" : 0
               },
               {
                  "name" : "water_cooling_ip",
                  "units" : "MBtu",
                  "value" : 0
               },
               {
                  "name" : "water_interior_lighting_ip",
                  "units" : "MBtu",
                  "value" : 0
               },
               {
                  "name" : "water_exterior_lighting_ip",
                  "units" : "MBtu",
                  "value" : 0
               },
               {
                  "name" : "water_interior_equipment_ip",
                  "units" : "MBtu",
                  "value" : 0
               },
               {
                  "name" : "water_exterior_equipment_ip",
                  "units" : "MBtu",
                  "value" : 0
               },
               {
                  "name" : "water_fans_ip",
                  "units" : "MBtu",
                  "value" : 0
               },
               {
                  "name" : "water_pumps_ip",
                  "units" : "MBtu",
                  "value" : 0
               },
               {
                  "name" : "water_heat_rejection_ip",
                  "units" : "MBtu",
                  "value" : 0
               },
               {
                  "name" : "water_humidification_ip",
                  "units" : "MBtu",
                  "value" : 0
               },
               {
                  "name" : "water_heat_recovery_ip",
                  "units" : "MBtu",
                  "value" : 0
               },
               {
                  "name" : "water_water_systems_ip",
                  "units" : "MBtu",
                  "value" : 0
               },
               {
                  "name" : "water_refrigeration_ip",
                  "units" : "MBtu",
                  "value" : 0
               },
               {
                  "name" : "water_generators_ip",
                  "units" : "MBtu",
                  "value" : 0
               },
               {
                  "name" : "water_ip",
                  "units" : "MBtu",
                  "value" : 0
               },
               {
                  "name" : "ashrae_189_1_2009_ext_roof_iead_climate_zone_2_5",
                  "units" : "ft^2",
                  "value" : 53819.55208354861
               },
               {
                  "name" : "ashrae_189_1_2009_ext_wall_steel_frame_climate_zone_4_8",
                  "units" : "ft^2",
                  "value" : 15500.03100006201
               },
               {
                  "name" : "ashrae_189_1_2009_ext_window_climate_zone_4_5",
                  "units" : "ft^2",
                  "value" : 10333.354000041323
               },
               {
                  "name" : "gross_window_wall_ratio",
                  "units" : "%",
                  "value" : 40
               },
               {
                  "name" : "gross_window_wall_ratio_conditioned",
                  "units" : "%",
                  "value" : 40
               },
               {
                  "name" : "skylight_roof_ratio",
                  "units" : "%",
                  "value" : 0
               },
               {
                  "name" : "space_type_baseline_model_space_type",
                  "units" : "ft^2",
                  "value" : 107639.10416709722
               },
               {
                  "name" : "exterior_lighting_total_power",
                  "units" : "W",
                  "value" : 0
               },
               {
                  "name" : "exterior_lighting_total_consumption",
                  "units" : "kWh",
                  "value" : 1963913.888888889
               },
               {
                  "name" : "inflation_approach",
                  "value" : "Constant Dollar"
               },
               {
                  "name" : "analysis_length",
                  "units" : "yrs",
                  "value" : 25
               },
               {
                  "name" : "annual_peak_electric_demand",
                  "units" : "kW",
                  "value" : 608.50811999999996
               },
               {
                  "name" : "first_year_capital_cost",
                  "units" : "$",
                  "value" : 0
               },
               {
                  "name" : "annual_utility_cost",
                  "units" : "$",
                  "value" : 0
               },
               {
                  "name" : "total_lifecycle_cost",
                  "units" : "$",
                  "value" : 0
               }
            ],
            "step_warnings" : []
         }
      }
   ],
   "updated_at" : "20180205T201215Z",
   "weather_file" : "../../weatherdata/USA_IL_Chicago-OHare.Intl.AP.725300_TMY3.epw"
}
