{
  "completed_status": "Success",
  "current_step": 1,
  "eplusout_err": [
    "Program Version,EnergyPlus, Version 8.8.0-7c3bbe4830, IDD_Version 8.8.0",
    "   ************* Beginning Zone Sizing Calculations",
    "   ** Warning ** ProcessScheduleInput: Schedule:Day:Interval=\"SCHEDULE DAY 2\", Blank Schedule Type Limits Name input -- will not be validated.",
    "   ** Warning ** ProcessScheduleInput: Schedule:Day:Interval=\"SCHEDULE DAY 3\", Blank Schedule Type Limits Name input -- will not be validated.",
    "   ** Warning ** ProcessScheduleInput: Schedule:Day:Interval=\"SCHEDULE DAY 4\", Blank Schedule Type Limits Name input -- will not be validated.",
    "   ** Warning ** ProcessScheduleInput: Schedule:Day:Interval=\"SCHEDULE DAY 5\", Blank Schedule Type Limits Name input -- will not be validated.",
    "   ** Warning ** ProcessScheduleInput: Schedule:Constant=\"ALWAYS OFF DISCRETE\", Blank Schedule Type Limits Name input -- will not be validated.",
    "   ** Warning ** ProcessScheduleInput: Schedule:Constant=\"ALWAYS ON CONTINUOUS\", Blank Schedule Type Limits Name input -- will not be validated.",
    "   ** Warning ** GetHTSurfaceData: Surfaces with interface to Ground found but no \"Ground Temperatures\" were input.",
    "   **   ~~~   ** Found first in surface=SURFACE 25",
    "   **   ~~~   ** Defaults, constant throughout the year of (18.0) will be used.",
    "   ** Warning ** CheckUsedConstructions: There are 6 nominally unused constructions in input.",
    "   **   ~~~   ** For explicit details on each unused construction, use Output:Diagnostics,DisplayExtraWarnings;",
    "   ** Warning ** GetSimpleAirModelInputs: ZoneInfiltration:DesignFlowRate=\"THERMAL ZONE 10 BASELINE MODEL INFILTRATION\", Design Flow Rate Calculation Method specifies Flow per Exterior Surface Area, but Exterior Surface Area = 0.  0 Infiltration will result.",
    "   ************* Beginning System Sizing Calculations",
    "   ** Warning ** SetpointManager:MixedAir=\"NODE 18 OS DEFAULT SPM\"",
    "   **   ~~~   ** ...setpoint node conflicts with another setpoint manager.",
    "   **   ~~~   ** ...conflicting setpoint manager = SetpointManager:MixedAir:\"SETPOINT MANAGER MIXED AIR 3\"",
    "   **   ~~~   ** ...conflicting node name = NODE 18",
    "   **   ~~~   ** ...control type variable = Temperature",
    "   ** Warning ** SetpointManager:MixedAir=\"NODE 19 OS DEFAULT SPM\"",
    "   **   ~~~   ** ...setpoint node conflicts with another setpoint manager.",
    "   **   ~~~   ** ...conflicting setpoint manager = SetpointManager:MixedAir:\"SETPOINT MANAGER MIXED AIR 2\"",
    "   **   ~~~   ** ...conflicting node name = NODE 19",
    "   **   ~~~   ** ...control type variable = Temperature",
    "   ** Warning ** SetpointManager:MixedAir=\"NODE 20 OS DEFAULT SPM\"",
    "   **   ~~~   ** ...setpoint node conflicts with another setpoint manager.",
    "   **   ~~~   ** ...conflicting setpoint manager = SetpointManager:MixedAir:\"SETPOINT MANAGER MIXED AIR 1\"",
    "   **   ~~~   ** ...conflicting node name = NODE 20",
    "   **   ~~~   ** ...control type variable = Temperature",
    "   ** Warning ** SetpointManager:MixedAir=\"SETPOINT MANAGER MIXED AIR 30\"",
    "   **   ~~~   ** ...setpoint node conflicts with another setpoint manager.",
    "   **   ~~~   ** ...conflicting setpoint manager = SetpointManager:MixedAir:\"NODE 117 OS DEFAULT SPM\"",
    "   **   ~~~   ** ...conflicting node name = NODE 117",
    "   **   ~~~   ** ...control type variable = Temperature",
    "   ** Warning ** SetpointManager:MixedAir=\"SETPOINT MANAGER MIXED AIR 29\"",
    "   **   ~~~   ** ...setpoint node conflicts with another setpoint manager.",
    "   **   ~~~   ** ...conflicting setpoint manager = SetpointManager:MixedAir:\"NODE 118 OS DEFAULT SPM\"",
    "   **   ~~~   ** ...conflicting node name = NODE 118",
    "   **   ~~~   ** ...control type variable = Temperature",
    "   ** Warning ** SetpointManager:MixedAir=\"SETPOINT MANAGER MIXED AIR 28\"",
    "   **   ~~~   ** ...setpoint node conflicts with another setpoint manager.",
    "   **   ~~~   ** ...conflicting setpoint manager = SetpointManager:MixedAir:\"NODE 119 OS DEFAULT SPM\"",
    "   **   ~~~   ** ...conflicting node name = NODE 119",
    "   **   ~~~   ** ...control type variable = Temperature",
    "   ** Warning ** SetpointManager:MixedAir=\"NODE 29 OS DEFAULT SPM\"",
    "   **   ~~~   ** ...setpoint node conflicts with another setpoint manager.",
    "   **   ~~~   ** ...conflicting setpoint manager = SetpointManager:MixedAir:\"SETPOINT MANAGER MIXED AIR 6\"",
    "   **   ~~~   ** ...conflicting node name = NODE 29",
    "   **   ~~~   ** ...control type variable = Temperature",
    "   ** Warning ** SetpointManager:MixedAir=\"NODE 30 OS DEFAULT SPM\"",
    "   **   ~~~   ** ...setpoint node conflicts with another setpoint manager.",
    "   **   ~~~   ** ...conflicting setpoint manager = SetpointManager:MixedAir:\"SETPOINT MANAGER MIXED AIR 5\"",
    "   **   ~~~   ** ...conflicting node name = NODE 30",
    "   **   ~~~   ** ...control type variable = Temperature",
    "   ** Warning ** SetpointManager:MixedAir=\"NODE 31 OS DEFAULT SPM\"",
    "   **   ~~~   ** ...setpoint node conflicts with another setpoint manager.",
    "   **   ~~~   ** ...conflicting setpoint manager = SetpointManager:MixedAir:\"SETPOINT MANAGER MIXED AIR 4\"",
    "   **   ~~~   ** ...conflicting node name = NODE 31",
    "   **   ~~~   ** ...control type variable = Temperature",
    "   ** Warning ** SetpointManager:MixedAir=\"SETPOINT MANAGER MIXED AIR 9\"",
    "   **   ~~~   ** ...setpoint node conflicts with another setpoint manager.",
    "   **   ~~~   ** ...conflicting setpoint manager = SetpointManager:MixedAir:\"NODE 40 OS DEFAULT SPM\"",
    "   **   ~~~   ** ...conflicting node name = NODE 40",
    "   **   ~~~   ** ...control type variable = Temperature",
    "   ** Warning ** SetpointManager:MixedAir=\"SETPOINT MANAGER MIXED AIR 8\"",
    "   **   ~~~   ** ...setpoint node conflicts with another setpoint manager.",
    "   **   ~~~   ** ...conflicting setpoint manager = SetpointManager:MixedAir:\"NODE 41 OS DEFAULT SPM\"",
    "   **   ~~~   ** ...conflicting node name = NODE 41",
    "   **   ~~~   ** ...control type variable = Temperature",
    "   ** Warning ** SetpointManager:MixedAir=\"SETPOINT MANAGER MIXED AIR 7\"",
    "   **   ~~~   ** ...setpoint node conflicts with another setpoint manager.",
    "   **   ~~~   ** ...conflicting setpoint manager = SetpointManager:MixedAir:\"NODE 42 OS DEFAULT SPM\"",
    "   **   ~~~   ** ...conflicting node name = NODE 42",
    "   **   ~~~   ** ...control type variable = Temperature",
    "   ** Warning ** SetpointManager:MixedAir=\"SETPOINT MANAGER MIXED AIR 12\"",
    "   **   ~~~   ** ...setpoint node conflicts with another setpoint manager.",
    "   **   ~~~   ** ...conflicting setpoint manager = SetpointManager:MixedAir:\"NODE 51 OS DEFAULT SPM\"",
    "   **   ~~~   ** ...conflicting node name = NODE 51",
    "   **   ~~~   ** ...control type variable = Temperature",
    "   ** Warning ** SetpointManager:MixedAir=\"SETPOINT MANAGER MIXED AIR 11\"",
    "   **   ~~~   ** ...setpoint node conflicts with another setpoint manager.",
    "   **   ~~~   ** ...conflicting setpoint manager = SetpointManager:MixedAir:\"NODE 52 OS DEFAULT SPM\"",
    "   **   ~~~   ** ...conflicting node name = NODE 52",
    "   **   ~~~   ** ...control type variable = Temperature",
    "   ** Warning ** SetpointManager:MixedAir=\"SETPOINT MANAGER MIXED AIR 10\"",
    "   **   ~~~   ** ...setpoint node conflicts with another setpoint manager.",
    "   **   ~~~   ** ...conflicting setpoint manager = SetpointManager:MixedAir:\"NODE 53 OS DEFAULT SPM\"",
    "   **   ~~~   ** ...conflicting node name = NODE 53",
    "   **   ~~~   ** ...control type variable = Temperature",
    "   ** Warning ** SetpointManager:MixedAir=\"SETPOINT MANAGER MIXED AIR 15\"",
    "   **   ~~~   ** ...setpoint node conflicts with another setpoint manager.",
    "   **   ~~~   ** ...conflicting setpoint manager = SetpointManager:MixedAir:\"NODE 62 OS DEFAULT SPM\"",
    "   **   ~~~   ** ...conflicting node name = NODE 62",
    "   **   ~~~   ** ...control type variable = Temperature",
    "   ** Warning ** SetpointManager:MixedAir=\"SETPOINT MANAGER MIXED AIR 14\"",
    "   **   ~~~   ** ...setpoint node conflicts with another setpoint manager.",
    "   **   ~~~   ** ...conflicting setpoint manager = SetpointManager:MixedAir:\"NODE 63 OS DEFAULT SPM\"",
    "   **   ~~~   ** ...conflicting node name = NODE 63",
    "   **   ~~~   ** ...control type variable = Temperature",
    "   ** Warning ** SetpointManager:MixedAir=\"SETPOINT MANAGER MIXED AIR 13\"",
    "   **   ~~~   ** ...setpoint node conflicts with another setpoint manager.",
    "   **   ~~~   ** ...conflicting setpoint manager = SetpointManager:MixedAir:\"NODE 64 OS DEFAULT SPM\"",
    "   **   ~~~   ** ...conflicting node name = NODE 64",
    "   **   ~~~   ** ...control type variable = Temperature",
    "   ** Warning ** SetpointManager:MixedAir=\"SETPOINT MANAGER MIXED AIR 18\"",
    "   **   ~~~   ** ...setpoint node conflicts with another setpoint manager.",
    "   **   ~~~   ** ...conflicting setpoint manager = SetpointManager:MixedAir:\"NODE 73 OS DEFAULT SPM\"",
    "   **   ~~~   ** ...conflicting node name = NODE 73",
    "   **   ~~~   ** ...control type variable = Temperature",
    "   ** Warning ** SetpointManager:MixedAir=\"SETPOINT MANAGER MIXED AIR 17\"",
    "   **   ~~~   ** ...setpoint node conflicts with another setpoint manager.",
    "   **   ~~~   ** ...conflicting setpoint manager = SetpointManager:MixedAir:\"NODE 74 OS DEFAULT SPM\"",
    "   **   ~~~   ** ...conflicting node name = NODE 74",
    "   **   ~~~   ** ...control type variable = Temperature",
    "   ** Warning ** SetpointManager:MixedAir=\"SETPOINT MANAGER MIXED AIR 16\"",
    "   **   ~~~   ** ...setpoint node conflicts with another setpoint manager.",
    "   **   ~~~   ** ...conflicting setpoint manager = SetpointManager:MixedAir:\"NODE 75 OS DEFAULT SPM\"",
    "   **   ~~~   ** ...conflicting node name = NODE 75",
    "   **   ~~~   ** ...control type variable = Temperature",
    "   ** Warning ** SetpointManager:MixedAir=\"SETPOINT MANAGER MIXED AIR 21\"",
    "   **   ~~~   ** ...setpoint node conflicts with another setpoint manager.",
    "   **   ~~~   ** ...conflicting setpoint manager = SetpointManager:MixedAir:\"NODE 84 OS DEFAULT SPM\"",
    "   **   ~~~   ** ...conflicting node name = NODE 84",
    "   **   ~~~   ** ...control type variable = Temperature",
    "   ** Warning ** SetpointManager:MixedAir=\"SETPOINT MANAGER MIXED AIR 20\"",
    "   **   ~~~   ** ...setpoint node conflicts with another setpoint manager.",
    "   **   ~~~   ** ...conflicting setpoint manager = SetpointManager:MixedAir:\"NODE 85 OS DEFAULT SPM\"",
    "   **   ~~~   ** ...conflicting node name = NODE 85",
    "   **   ~~~   ** ...control type variable = Temperature",
    "   ** Warning ** SetpointManager:MixedAir=\"SETPOINT MANAGER MIXED AIR 19\"",
    "   **   ~~~   ** ...setpoint node conflicts with another setpoint manager.",
    "   **   ~~~   ** ...conflicting setpoint manager = SetpointManager:MixedAir:\"NODE 86 OS DEFAULT SPM\"",
    "   **   ~~~   ** ...conflicting node name = NODE 86",
    "   **   ~~~   ** ...control type variable = Temperature",
    "   ** Warning ** SetpointManager:MixedAir=\"SETPOINT MANAGER MIXED AIR 24\"",
    "   **   ~~~   ** ...setpoint node conflicts with another setpoint manager.",
    "   **   ~~~   ** ...conflicting setpoint manager = SetpointManager:MixedAir:\"NODE 95 OS DEFAULT SPM\"",
    "   **   ~~~   ** ...conflicting node name = NODE 95",
    "   **   ~~~   ** ...control type variable = Temperature",
    "   ** Warning ** SetpointManager:MixedAir=\"SETPOINT MANAGER MIXED AIR 23\"",
    "   **   ~~~   ** ...setpoint node conflicts with another setpoint manager.",
    "   **   ~~~   ** ...conflicting setpoint manager = SetpointManager:MixedAir:\"NODE 96 OS DEFAULT SPM\"",
    "   **   ~~~   ** ...conflicting node name = NODE 96",
    "   **   ~~~   ** ...control type variable = Temperature",
    "   ** Warning ** SetpointManager:MixedAir=\"SETPOINT MANAGER MIXED AIR 22\"",
    "   **   ~~~   ** ...setpoint node conflicts with another setpoint manager.",
    "   **   ~~~   ** ...conflicting setpoint manager = SetpointManager:MixedAir:\"NODE 97 OS DEFAULT SPM\"",
    "   **   ~~~   ** ...conflicting node name = NODE 97",
    "   **   ~~~   ** ...control type variable = Temperature",
    "   ** Warning ** SetpointManager:MixedAir=\"SETPOINT MANAGER MIXED AIR 27\"",
    "   **   ~~~   ** ...setpoint node conflicts with another setpoint manager.",
    "   **   ~~~   ** ...conflicting setpoint manager = SetpointManager:MixedAir:\"NODE 106 OS DEFAULT SPM\"",
    "   **   ~~~   ** ...conflicting node name = NODE 106",
    "   **   ~~~   ** ...control type variable = Temperature",
    "   ** Warning ** SetpointManager:MixedAir=\"SETPOINT MANAGER MIXED AIR 26\"",
    "   **   ~~~   ** ...setpoint node conflicts with another setpoint manager.",
    "   **   ~~~   ** ...conflicting setpoint manager = SetpointManager:MixedAir:\"NODE 107 OS DEFAULT SPM\"",
    "   **   ~~~   ** ...conflicting node name = NODE 107",
    "   **   ~~~   ** ...control type variable = Temperature",
    "   ** Warning ** SetpointManager:MixedAir=\"SETPOINT MANAGER MIXED AIR 25\"",
    "   **   ~~~   ** ...setpoint node conflicts with another setpoint manager.",
    "   **   ~~~   ** ...conflicting setpoint manager = SetpointManager:MixedAir:\"NODE 108 OS DEFAULT SPM\"",
    "   **   ~~~   ** ...conflicting node name = NODE 108",
    "   **   ~~~   ** ...control type variable = Temperature",
    "   ** Warning ** Output:Meter: invalid Key Name=\"DISTRICTCOOLING:FACILITY\" - not found.",
    "   ** Warning ** Output:Meter: invalid Key Name=\"DISTRICTHEATING:FACILITY\" - not found.",
    "   ** Warning ** Output:Meter:MeterFileOnly requested for \"Electricity:Facility\" (TimeStep), already on \"Output:Meter\". Will report to both eplusout.eso and eplusout.mtr",
    "   ************* Testing Individual Branch Integrity",
    "   ************* All Branches passed integrity testing",
    "   ************* Testing Individual Supply Air Path Integrity",
    "   ************* All Supply Air Paths passed integrity testing",
    "   ************* Testing Individual Return Air Path Integrity",
    "   ************* All Return Air Paths passed integrity testing",
    "   ************* No node connection errors were found.",
    "   ************* Beginning Simulation",
    "   ** Warning ** CalcDoe2DXCoil: Coil:Cooling:DX:SingleSpeed \"COIL COOLING DX SINGLE SPEED 4\" - Full load outlet air dry-bulb temperature < 2C. This indicates the possibility of coil frost/freeze. Outlet temperature = -2.47 C.",
    "   **   ~~~   **  ...Occurrence info = RUN PERIOD 1, 01/02 13:10 - 13:20",
    "   **   ~~~   ** ... Possible reasons for low outlet air dry-bulb temperatures are: This DX coil",
    "   **   ~~~   **    1) may have a low inlet air dry-bulb temperature. Inlet air temperature = 18.006 C.",
    "   **   ~~~   **    2) may have a low air flow rate per watt of cooling capacity. Check inputs.",
    "   **   ~~~   **    3) is used as part of a HX assisted cooling coil which uses a high sensible effectiveness. Check inputs.",
    "   ** Warning ** CalcDoe2DXCoil: Coil:Cooling:DX:SingleSpeed \"COIL COOLING DX SINGLE SPEED 2\" - Air-cooled condenser inlet dry-bulb temperature below 0 C. Outdoor dry-bulb temperature = -11.70",
    "   **   ~~~   **  ... Occurrence info = RUN PERIOD 1, 01/05 09:50 - 10:00",
    "   **   ~~~   ** ... Operation at low ambient temperatures may require special performance curves.",
    "   ** Warning ** CalcDoe2DXCoil: Coil:Cooling:DX:SingleSpeed \"COIL COOLING DX SINGLE SPEED 2\" - Full load outlet air dry-bulb temperature < 2C. This indicates the possibility of coil frost/freeze. Outlet temperature = -0.78 C.",
    "   **   ~~~   **  ...Occurrence info = RUN PERIOD 1, 01/05 09:50 - 10:00",
    "   **   ~~~   ** ... Possible reasons for low outlet air dry-bulb temperatures are: This DX coil",
    "   **   ~~~   **    1) may have a low inlet air dry-bulb temperature. Inlet air temperature = 21.108 C.",
    "   **   ~~~   **    2) may have a low air flow rate per watt of cooling capacity. Check inputs.",
    "   **   ~~~   **    3) is used as part of a HX assisted cooling coil which uses a high sensible effectiveness. Check inputs.",
    "   ** Warning ** CalcDoe2DXCoil: Coil:Cooling:DX:SingleSpeed \"COIL COOLING DX SINGLE SPEED 7\" - Air-cooled condenser inlet dry-bulb temperature below 0 C. Outdoor dry-bulb temperature = -10.17",
    "   **   ~~~   **  ... Occurrence info = RUN PERIOD 1, 01/05 10:35 - 10:40",
    "   **   ~~~   ** ... Operation at low ambient temperatures may require special performance curves.",
    "   ** Warning ** CalcDoe2DXCoil: Coil:Cooling:DX:SingleSpeed \"COIL COOLING DX SINGLE SPEED 7\" - Full load outlet air dry-bulb temperature < 2C. This indicates the possibility of coil frost/freeze. Outlet temperature = -1.92E-002 C.",
    "   **   ~~~   **  ...Occurrence info = RUN PERIOD 1, 01/05 10:35 - 10:40",
    "   **   ~~~   ** ... Possible reasons for low outlet air dry-bulb temperatures are: This DX coil",
    "   **   ~~~   **    1) may have a low inlet air dry-bulb temperature. Inlet air temperature = 21.862 C.",
    "   **   ~~~   **    2) may have a low air flow rate per watt of cooling capacity. Check inputs.",
    "   **   ~~~   **    3) is used as part of a HX assisted cooling coil which uses a high sensible effectiveness. Check inputs.",
    "   ** Warning ** CalcDoe2DXCoil: Coil:Cooling:DX:SingleSpeed \"COIL COOLING DX SINGLE SPEED 6\" - Air-cooled condenser inlet dry-bulb temperature below 0 C. Outdoor dry-bulb temperature = -4.47",
    "   **   ~~~   **  ... Occurrence info = RUN PERIOD 1, 01/05 14:30 - 14:40",
    "   **   ~~~   ** ... Operation at low ambient temperatures may require special performance curves.",
    "   ** Warning ** CalcDoe2DXCoil: Coil:Cooling:DX:SingleSpeed \"COIL COOLING DX SINGLE SPEED 6\" - Full load outlet air dry-bulb temperature < 2C. This indicates the possibility of coil frost/freeze. Outlet temperature = 2.30E-002 C.",
    "   **   ~~~   **  ...Occurrence info = RUN PERIOD 1, 01/05 14:30 - 14:40",
    "   **   ~~~   ** ... Possible reasons for low outlet air dry-bulb temperatures are: This DX coil",
    "   **   ~~~   **    1) may have a low inlet air dry-bulb temperature. Inlet air temperature = 21.879 C.",
    "   **   ~~~   **    2) may have a low air flow rate per watt of cooling capacity. Check inputs.",
    "   **   ~~~   **    3) is used as part of a HX assisted cooling coil which uses a high sensible effectiveness. Check inputs.",
    "   ** Warning ** CalcDoe2DXCoil: Coil:Cooling:DX:SingleSpeed \"COIL COOLING DX SINGLE SPEED 3\" - Air-cooled condenser inlet dry-bulb temperature below 0 C. Outdoor dry-bulb temperature = -0.92",
    "   **   ~~~   **  ... Occurrence info = RUN PERIOD 1, 01/10 09:00 - 09:10",
    "   **   ~~~   ** ... Operation at low ambient temperatures may require special performance curves.",
    "   ** Warning ** CalcDoe2DXCoil: Coil:Cooling:DX:SingleSpeed \"COIL COOLING DX SINGLE SPEED 3\" - Full load outlet air dry-bulb temperature < 2C. This indicates the possibility of coil frost/freeze. Outlet temperature = 0.25 C.",
    "   **   ~~~   **  ...Occurrence info = RUN PERIOD 1, 01/10 09:00 - 09:10",
    "   **   ~~~   ** ... Possible reasons for low outlet air dry-bulb temperatures are: This DX coil",
    "   **   ~~~   **    1) may have a low inlet air dry-bulb temperature. Inlet air temperature = 22.076 C.",
    "   **   ~~~   **    2) may have a low air flow rate per watt of cooling capacity. Check inputs.",
    "   **   ~~~   **    3) is used as part of a HX assisted cooling coil which uses a high sensible effectiveness. Check inputs.",
    "   ** Warning ** CalcDoe2DXCoil: Coil:Cooling:DX:SingleSpeed \"COIL COOLING DX SINGLE SPEED 8\" - Air-cooled condenser inlet dry-bulb temperature below 0 C. Outdoor dry-bulb temperature = -0.18",
    "   **   ~~~   **  ... Occurrence info = RUN PERIOD 1, 01/10 09:45 - 09:50",
    "   **   ~~~   ** ... Operation at low ambient temperatures may require special performance curves.",
    "   ** Warning ** CalcDoe2DXCoil: Coil:Cooling:DX:SingleSpeed \"COIL COOLING DX SINGLE SPEED 8\" - Full load outlet air dry-bulb temperature < 2C. This indicates the possibility of coil frost/freeze. Outlet temperature = 0.77 C.",
    "   **   ~~~   **  ...Occurrence info = RUN PERIOD 1, 01/10 09:45 - 09:50",
    "   **   ~~~   ** ... Possible reasons for low outlet air dry-bulb temperatures are: This DX coil",
    "   **   ~~~   **    1) may have a low inlet air dry-bulb temperature. Inlet air temperature = 22.591 C.",
    "   **   ~~~   **    2) may have a low air flow rate per watt of cooling capacity. Check inputs.",
    "   **   ~~~   **    3) is used as part of a HX assisted cooling coil which uses a high sensible effectiveness. Check inputs.",
    "   ** Warning ** CalcDoe2DXCoil: Coil:Cooling:DX:SingleSpeed \"COIL COOLING DX SINGLE SPEED 10\" - Full load outlet air dry-bulb temperature < 2C. This indicates the possibility of coil frost/freeze. Outlet temperature = 0.95 C.",
    "   **   ~~~   **  ...Occurrence info = RUN PERIOD 1, 01/10 13:40 - 13:50",
    "   **   ~~~   ** ... Possible reasons for low outlet air dry-bulb temperatures are: This DX coil",
    "   **   ~~~   **    1) may have a low inlet air dry-bulb temperature. Inlet air temperature = 22.756 C.",
    "   **   ~~~   **    2) may have a low air flow rate per watt of cooling capacity. Check inputs.",
    "   **   ~~~   **    3) is used as part of a HX assisted cooling coil which uses a high sensible effectiveness. Check inputs.",
    "   ** Warning ** CalcDoe2DXCoil: Coil:Cooling:DX:SingleSpeed \"COIL COOLING DX SINGLE SPEED 4\" - Air-cooled condenser inlet dry-bulb temperature below 0 C. Outdoor dry-bulb temperature = -1.67",
    "   **   ~~~   **  ... Occurrence info = RUN PERIOD 1, 01/10 17:10 - 17:13",
    "   **   ~~~   ** ... Operation at low ambient temperatures may require special performance curves.",
    "   ** Warning ** CalcDoe2DXCoil: Coil:Cooling:DX:SingleSpeed \"COIL COOLING DX SINGLE SPEED 1\" - Full load outlet air dry-bulb temperature < 2C. This indicates the possibility of coil frost/freeze. Outlet temperature = -4.47 C.",
    "   **   ~~~   **  ...Occurrence info = RUN PERIOD 1, 01/16 13:13 - 13:17",
    "   **   ~~~   ** ... Possible reasons for low outlet air dry-bulb temperatures are: This DX coil",
    "   **   ~~~   **    1) may have a low inlet air dry-bulb temperature. Inlet air temperature = 13.836 C.",
    "   **   ~~~   **    2) may have a low air flow rate per watt of cooling capacity. Check inputs.",
    "   **   ~~~   **    3) is used as part of a HX assisted cooling coil which uses a high sensible effectiveness. Check inputs.",
    "   ** Warning ** CalcDoe2DXCoil: Coil:Cooling:DX:SingleSpeed \"COIL COOLING DX SINGLE SPEED 10\" - Air-cooled condenser inlet dry-bulb temperature below 0 C. Outdoor dry-bulb temperature = -1.13",
    "   **   ~~~   **  ... Occurrence info = RUN PERIOD 1, 01/20 17:10 - 17:15",
    "   **   ~~~   ** ... Operation at low ambient temperatures may require special performance curves.",
    "   ** Warning ** CalcDoe2DXCoil: Coil:Cooling:DX:SingleSpeed \"COIL COOLING DX SINGLE SPEED 5\" - Full load outlet air dry-bulb temperature < 2C. This indicates the possibility of coil frost/freeze. Outlet temperature = 1.51 C.",
    "   **   ~~~   **  ...Occurrence info = RUN PERIOD 1, 02/22 13:05 - 13:10",
    "   **   ~~~   ** ... Possible reasons for low outlet air dry-bulb temperatures are: This DX coil",
    "   **   ~~~   **    1) may have a low inlet air dry-bulb temperature. Inlet air temperature = 23.298 C.",
    "   **   ~~~   **    2) may have a low air flow rate per watt of cooling capacity. Check inputs.",
    "   **   ~~~   **    3) is used as part of a HX assisted cooling coil which uses a high sensible effectiveness. Check inputs.",
    "   ** Warning ** CalcDoe2DXCoil: Coil:Cooling:DX:SingleSpeed \"COIL COOLING DX SINGLE SPEED 9\" - Full load outlet air dry-bulb temperature < 2C. This indicates the possibility of coil frost/freeze. Outlet temperature = 1.25 C.",
    "   **   ~~~   **  ...Occurrence info = RUN PERIOD 1, 02/22 13:05 - 13:10",
    "   **   ~~~   ** ... Possible reasons for low outlet air dry-bulb temperatures are: This DX coil",
    "   **   ~~~   **    1) may have a low inlet air dry-bulb temperature. Inlet air temperature = 23.029 C.",
    "   **   ~~~   **    2) may have a low air flow rate per watt of cooling capacity. Check inputs.",
    "   **   ~~~   **    3) is used as part of a HX assisted cooling coil which uses a high sensible effectiveness. Check inputs.",
    "   ** Warning ** The resource referenced by LifeCycleCost:UsePriceEscalation= \"U.S. AVG  COMMERCIAL-ELECTRICITY\" has no energy cost. ",
    "   **   ~~~   ** ... It is likely that the wrong resource is used. The resource should match the meter used in Utility:Tariff.",
    "   ** Warning ** The resource referenced by LifeCycleCost:UsePriceEscalation= \"U.S. AVG  COMMERCIAL-DISTILLATE OIL\" has no energy cost. ",
    "   **   ~~~   ** ... It is likely that the wrong resource is used. The resource should match the meter used in Utility:Tariff.",
    "   ** Warning ** The resource referenced by LifeCycleCost:UsePriceEscalation= \"U.S. AVG  COMMERCIAL-RESIDUAL OIL\" has no energy cost. ",
    "   **   ~~~   ** ... It is likely that the wrong resource is used. The resource should match the meter used in Utility:Tariff.",
    "   ** Warning ** The resource referenced by LifeCycleCost:UsePriceEscalation= \"U.S. AVG  COMMERCIAL-NATURAL GAS\" has no energy cost. ",
    "   **   ~~~   ** ... It is likely that the wrong resource is used. The resource should match the meter used in Utility:Tariff.",
    "   ** Warning ** The resource referenced by LifeCycleCost:UsePriceEscalation= \"U.S. AVG  COMMERCIAL-COAL\" has no energy cost. ",
    "   **   ~~~   ** ... It is likely that the wrong resource is used. The resource should match the meter used in Utility:Tariff.",
    "   ************* Simulation Error Summary *************",
    "   ************* There are 2 unused schedules in input.",
    "   ************* There are 2 unused week schedules in input.",
    "   ************* There are 6 unused day schedules in input.",
    "   ************* Use Output:Diagnostics,DisplayUnusedSchedules; to see them.",
    "   *************",
    "   ************* ===== Recurring Error Summary =====",
    "   ************* The following recurring error messages occurred.",
    "   *************",
    "   *************  ** Warning ** CalcDoe2DXCoil: Coil:Cooling:DX:SingleSpeed=\"COIL COOLING DX SINGLE SPEED 4\" - Full load outlet temperature indicates a possibility of frost/freeze error continues. Outlet air temperature statistics follow:",
    "   *************  **   ~~~   **   This error occurred 580 total times;",
    "   *************  **   ~~~   **   during Warmup 0 times;",
    "   *************  **   ~~~   **   during Sizing 0 times.",
    "   *************  **   ~~~   **   Max=1.999818  Min=-4.144054",
    "   *************",
    "   *************  ** Warning ** CalcDoe2DXCoil: Coil:Cooling:DX:SingleSpeed=\"COIL COOLING DX SINGLE SPEED 2\" - Low condenser dry-bulb temperature error continues...",
    "   *************  **   ~~~   **   This error occurred 850 total times;",
    "   *************  **   ~~~   **   during Warmup 0 times;",
    "   *************  **   ~~~   **   during Sizing 0 times.",
    "   *************  **   ~~~   **   Max=-3.333333E-002 [C]  Min=-17.433333 [C]",
    "   *************",
    "   *************  ** Warning ** CalcDoe2DXCoil: Coil:Cooling:DX:SingleSpeed=\"COIL COOLING DX SINGLE SPEED 2\" - Full load outlet temperature indicates a possibility of frost/freeze error continues. Outlet air temperature statistics follow:",
    "   *************  **   ~~~   **   This error occurred 678 total times;",
    "   *************  **   ~~~   **   during Warmup 0 times;",
    "   *************  **   ~~~   **   during Sizing 0 times.",
    "   *************  **   ~~~   **   Max=1.99514  Min=-1.398181",
    "   *************",
    "   *************  ** Warning ** CalcDoe2DXCoil: Coil:Cooling:DX:SingleSpeed=\"COIL COOLING DX SINGLE SPEED 7\" - Low condenser dry-bulb temperature error continues...",
    "   *************  **   ~~~   **   This error occurred 633 total times;",
    "   *************  **   ~~~   **   during Warmup 0 times;",
    "   *************  **   ~~~   **   during Sizing 0 times.",
    "   *************  **   ~~~   **   Max=-3.333333E-002 [C]  Min=-16.5 [C]",
    "   *************",
    "   *************  ** Warning ** CalcDoe2DXCoil: Coil:Cooling:DX:SingleSpeed=\"COIL COOLING DX SINGLE SPEED 7\" - Full load outlet temperature indicates a possibility of frost/freeze error continues. Outlet air temperature statistics follow:",
    "   *************  **   ~~~   **   This error occurred 530 total times;",
    "   *************  **   ~~~   **   during Warmup 0 times;",
    "   *************  **   ~~~   **   during Sizing 0 times.",
    "   *************  **   ~~~   **   Max=1.998592  Min=-0.564567",
    "   *************",
    "   *************  ** Warning ** CalcDoe2DXCoil: Coil:Cooling:DX:SingleSpeed=\"COIL COOLING DX SINGLE SPEED 6\" - Low condenser dry-bulb temperature error continues...",
    "   *************  **   ~~~   **   This error occurred 94 total times;",
    "   *************  **   ~~~   **   during Warmup 0 times;",
    "   *************  **   ~~~   **   during Sizing 0 times.",
    "   *************  **   ~~~   **   Max=-0.216667 [C]  Min=-10.2 [C]",
    "   *************",
    "   *************  ** Warning ** CalcDoe2DXCoil: Coil:Cooling:DX:SingleSpeed=\"COIL COOLING DX SINGLE SPEED 6\" - Full load outlet temperature indicates a possibility of frost/freeze error continues. Outlet air temperature statistics follow:",
    "   *************  **   ~~~   **   This error occurred 285 total times;",
    "   *************  **   ~~~   **   during Warmup 0 times;",
    "   *************  **   ~~~   **   during Sizing 0 times.",
    "   *************  **   ~~~   **   Max=1.99819  Min=-0.426501",
    "   *************",
    "   *************  ** Warning ** CalcDoe2DXCoil: Coil:Cooling:DX:SingleSpeed=\"COIL COOLING DX SINGLE SPEED 3\" - Low condenser dry-bulb temperature error continues...",
    "   *************  **   ~~~   **   This error occurred 74 total times;",
    "   *************  **   ~~~   **   during Warmup 0 times;",
    "   *************  **   ~~~   **   during Sizing 0 times.",
    "   *************  **   ~~~   **   Max=-3.333333E-002 [C]  Min=-9.266667 [C]",
    "   *************",
    "   *************  ** Warning ** CalcDoe2DXCoil: Coil:Cooling:DX:SingleSpeed=\"COIL COOLING DX SINGLE SPEED 3\" - Full load outlet temperature indicates a possibility of frost/freeze error continues. Outlet air temperature statistics follow:",
    "   *************  **   ~~~   **   This error occurred 246 total times;",
    "   *************  **   ~~~   **   during Warmup 0 times;",
    "   *************  **   ~~~   **   during Sizing 0 times.",
    "   *************  **   ~~~   **   Max=1.997902  Min=-0.677622",
    "   *************",
    "   *************  ** Warning ** CalcDoe2DXCoil: Coil:Cooling:DX:SingleSpeed=\"COIL COOLING DX SINGLE SPEED 8\" - Low condenser dry-bulb temperature error continues...",
    "   *************  **   ~~~   **   This error occurred 34 total times;",
    "   *************  **   ~~~   **   during Warmup 0 times;",
    "   *************  **   ~~~   **   during Sizing 0 times.",
    "   *************  **   ~~~   **   Max=-5.000000E-002 [C]  Min=-7.483333 [C]",
    "   *************",
    "   *************  ** Warning ** CalcDoe2DXCoil: Coil:Cooling:DX:SingleSpeed=\"COIL COOLING DX SINGLE SPEED 8\" - Full load outlet temperature indicates a possibility of frost/freeze error continues. Outlet air temperature statistics follow:",
    "   *************  **   ~~~   **   This error occurred 223 total times;",
    "   *************  **   ~~~   **   during Warmup 0 times;",
    "   *************  **   ~~~   **   during Sizing 0 times.",
    "   *************  **   ~~~   **   Max=1.999933  Min=0.148947",
    "   *************",
    "   *************  ** Warning ** CalcDoe2DXCoil: Coil:Cooling:DX:SingleSpeed=\"COIL COOLING DX SINGLE SPEED 10\" - Full load outlet temperature indicates a possibility of frost/freeze error continues. Outlet air temperature statistics follow:",
    "   *************  **   ~~~   **   This error occurred 188 total times;",
    "   *************  **   ~~~   **   during Warmup 0 times;",
    "   *************  **   ~~~   **   during Sizing 0 times.",
    "   *************  **   ~~~   **   Max=1.993171  Min=0.501104",
    "   *************",
    "   *************  ** Warning ** CalcDoe2DXCoil: Coil:Cooling:DX:SingleSpeed=\"COIL COOLING DX SINGLE SPEED 4\" - Low condenser dry-bulb temperature error continues...",
    "   *************  **   ~~~   **   This error occurred 5 total times;",
    "   *************  **   ~~~   **   during Warmup 0 times;",
    "   *************  **   ~~~   **   during Sizing 0 times.",
    "   *************  **   ~~~   **   Max=-3.333333E-002 [C]  Min=-1.866667 [C]",
    "   *************",
    "   *************  ** Warning ** CalcDoe2DXCoil: Coil:Cooling:DX:SingleSpeed=\"COIL COOLING DX SINGLE SPEED 1\" - Full load outlet temperature indicates a possibility of frost/freeze error continues. Outlet air temperature statistics follow:",
    "   *************  **   ~~~   **   This error occurred 154 total times;",
    "   *************  **   ~~~   **   during Warmup 0 times;",
    "   *************  **   ~~~   **   during Sizing 0 times.",
    "   *************  **   ~~~   **   Max=1.903614  Min=-7.736934",
    "   *************",
    "   *************  ** Warning ** CalcDoe2DXCoil: Coil:Cooling:DX:SingleSpeed=\"COIL COOLING DX SINGLE SPEED 10\" - Low condenser dry-bulb temperature error continues...",
    "   *************  **   ~~~   **   This error occurred 49 total times;",
    "   *************  **   ~~~   **   during Warmup 0 times;",
    "   *************  **   ~~~   **   during Sizing 0 times.",
    "   *************  **   ~~~   **   Max=-0.183333 [C]  Min=-6.666667 [C]",
    "   *************",
    "   *************  ** Warning ** CalcDoe2DXCoil: Coil:Cooling:DX:SingleSpeed=\"COIL COOLING DX SINGLE SPEED 5\" - Full load outlet temperature indicates a possibility of frost/freeze error continues. Outlet air temperature statistics follow:",
    "   *************  **   ~~~   **   This error occurred 23 total times;",
    "   *************  **   ~~~   **   during Warmup 0 times;",
    "   *************  **   ~~~   **   during Sizing 0 times.",
    "   *************  **   ~~~   **   Max=1.978522  Min=1.394806",
    "   *************",
    "   *************  ** Warning ** CalcDoe2DXCoil: Coil:Cooling:DX:SingleSpeed=\"COIL COOLING DX SINGLE SPEED 9\" - Full load outlet temperature indicates a possibility of frost/freeze error continues. Outlet air temperature statistics follow:",
    "   *************  **   ~~~   **   This error occurred 26 total times;",
    "   *************  **   ~~~   **   during Warmup 0 times;",
    "   *************  **   ~~~   **   during Sizing 0 times.",
    "   *************  **   ~~~   **   Max=1.968771  Min=1.018227",
    "   *************",
    "   *************",
    "   ************* ===== Final Error Summary =====",
    "   ************* The following error categories occurred.  Consider correcting or noting.",
    "   ************* Nominally Unused Constructions",
    "   ************* ..The nominally unused constructions warning is provided to alert you to potential conditions that can cause",
    "   ************* ..extra time during simulation. Each construction is calculated by the algorithm indicated in the HeatBalanceAlgorithm",
    "   ************* ..object. You may remove the constructions indicated (when you use the DisplayExtraWarnings option).",
    "   *************",
    "   ************* EnergyPlus Warmup Error Summary. During Warmup: 0 Warning; 0 Severe Errors.",
    "   ************* EnergyPlus Sizing Error Summary. During Sizing: 9 Warning; 0 Severe Errors.",
    "   ************* EnergyPlus Completed Successfully-- 4719 Warning; 0 Severe Errors; "
  ],
  "seed_file": "in.osm",
  "steps": [
    {
      "arguments": {
      },
      "measure_dir_name": "openstudio_results",
      "result": {
        "measure_class_name": "OpenStudioResults",
        "measure_display_name": "OpenStudio Results",
        "measure_name": "openstudio_results",
        "measure_taxonomy": "Reporting.QAQC",
        "measure_type": "ReportingMeasure",
        "measure_uid": "a25386cd-60e4-46bc-8b11-c755f379d916",
        "measure_version_id": "5b8e57e8-830a-43ae-90d4-a41d97698d95",
        "measure_version_modified": "20171219T161835Z",
        "measure_xml_checksum": "557BF06F",
        "stderr": "",
        "stdout": "",
        "step_errors": [

        ],
        "step_final_condition": "Generated report with 21 sections to ./report.html.",
        "step_info": [

        ],
        "step_initial_condition": "Gathering data from EnergyPlus SQL file and OSM model.",
        "step_result": "Success",
        "step_values": [
          {
            "name": "building_summary_section",
            "value": true
          },
          {
            "name": "annual_overview_section",
            "value": true
          },
          {
            "name": "monthly_overview_section",
            "value": true
          },
          {
            "name": "utility_bills_rates_section",
            "value": true
          },
          {
            "name": "envelope_section_section",
            "value": true
          },
          {
            "name": "space_type_breakdown_section",
            "value": true
          },
          {
            "name": "space_type_details_section",
            "value": true
          },
          {
            "name": "interior_lighting_section",
            "value": true
          },
          {
            "name": "plug_loads_section",
            "value": true
          },
          {
            "name": "exterior_light_section",
            "value": true
          },
          {
            "name": "water_use_section",
            "value": true
          },
          {
            "name": "hvac_load_profile",
            "value": true
          },
          {
            "name": "zone_condition_section",
            "value": true
          },
          {
            "name": "zone_summary_section",
            "value": true
          },
          {
            "name": "zone_equipment_detail_section",
            "value": true
          },
          {
            "name": "air_loops_detail_section",
            "value": true
          },
          {
            "name": "plant_loops_detail_section",
            "value": true
          },
          {
            "name": "outdoor_air_section",
            "value": true
          },
          {
            "name": "cost_summary_section",
            "value": true
          },
          {
            "name": "source_energy_section",
            "value": true
          },
          {
            "name": "schedules_overview_section",
            "value": true
          },
          {
            "display_name": "OS:Building 1",
            "name": "building_name",
            "value": "building_name"
          },
          {
            "name": "total_site_energy",
            "units": "kBtu",
            "value": 7136873.35
          },
          {
            "name": "net_site_energy",
            "units": "kBtu",
            "value": 7136873.35
          },
          {
            "name": "total_building_area",
            "units": "ft^2",
            "value": 107639.1
          },
          {
            "name": "total_site_eui",
            "units": "kBtu/ft^2",
            "value": 66.3
          },
          {
            "name": "eui",
            "units": "kBtu/ft^2",
            "value": 66.3
          },
          {
            "name": "unmet_hours_during_heating",
            "units": "hr",
            "value": 0
          },
          {
            "name": "unmet_hours_during_cooling",
            "units": "hr",
            "value": 6.83
          },
          {
            "name": "unmet_hours_during_occupied_heating",
            "units": "hr",
            "value": 0
          },
          {
            "name": "unmet_hours_during_occupied_cooling",
            "units": "hr",
            "value": 6.83
          },
          {
            "name": "unmet_hours_tolerance_heating",
            "units": "F",
            "value": 0.36
          },
          {
            "name": "unmet_hours_tolerance_cooling",
            "units": "F",
            "value": 0.36
          },
          {
            "name": "end_use_heating",
            "units": "kBtu",
            "value": 4328415.4
          },
          {
            "name": "end_use_cooling",
            "units": "kBtu",
            "value": 247607.74
          },
          {
            "name": "end_use_interior_lighting",
            "units": "kBtu",
            "value": 1040873.81
          },
          {
            "name": "end_use_exterior_lighting",
            "units": "kBtu",
            "value": 0
          },
          {
            "name": "end_use_interior_equipment",
            "units": "kBtu",
            "value": 1040873.81
          },
          {
            "name": "end_use_exterior_equipment",
            "units": "kBtu",
            "value": 0
          },
          {
            "name": "end_use_fans",
            "units": "kBtu",
            "value": 479112.08
          },
          {
            "name": "end_use_pumps",
            "units": "kBtu",
            "value": 0
          },
          {
            "name": "end_use_heat_rejection",
            "units": "kBtu",
            "value": 0
          },
          {
            "name": "end_use_humidification",
            "units": "kBtu",
            "value": 0
          },
          {
            "name": "end_use_heat_recovery",
            "units": "kBtu",
            "value": 0
          },
          {
            "name": "end_use_water_systems",
            "units": "kBtu",
            "value": 0
          },
          {
            "name": "end_use_refrigeration",
            "units": "kBtu",
            "value": 0
          },
          {
            "name": "end_use_generators",
            "units": "kBtu",
            "value": 0
          },
          {
            "name": "fuel_electricity",
            "units": "kBtu",
            "value": 2808457.95
          },
          {
            "name": "fuel_natural_gas",
            "units": "kBtu",
            "value": 4328415.4
          },
          {
            "name": "fuel_additional_fuel",
            "units": "kBtu",
            "value": 0
          },
          {
            "name": "fuel_district_cooling",
            "units": "kBtu",
            "value": 0
          },
          {
            "name": "fuel_district_heating",
            "units": "kBtu",
            "value": 0
          },
          {
            "name": "end_use_electricity_heating",
            "units": "kWh",
            "value": 0
          },
          {
            "name": "end_use_electricity_cooling",
            "units": "kWh",
            "value": 72566.67
          },
          {
            "name": "end_use_electricity_interior_lighting",
            "units": "kWh",
            "value": 305050.0
          },
          {
            "name": "end_use_electricity_exterior_lighting",
            "units": "kWh",
            "value": 0
          },
          {
            "name": "end_use_electricity_interior_equipment",
            "units": "kWh",
            "value": 305050.0
          },
          {
            "name": "end_use_electricity_exterior_equipment",
            "units": "kWh",
            "value": 0
          },
          {
            "name": "end_use_electricity_fans",
            "units": "kWh",
            "value": 140413.89
          },
          {
            "name": "end_use_electricity_pumps",
            "units": "kWh",
            "value": 0
          },
          {
            "name": "end_use_electricity_heat_rejection",
            "units": "kWh",
            "value": 0
          },
          {
            "name": "end_use_electricity_humidification",
            "units": "kWh",
            "value": 0
          },
          {
            "name": "end_use_electricity_heat_recovery",
            "units": "kWh",
            "value": 0
          },
          {
            "name": "end_use_electricity_water_systems",
            "units": "kWh",
            "value": 0
          },
          {
            "name": "end_use_electricity_refrigeration",
            "units": "kWh",
            "value": 0
          },
          {
            "name": "end_use_electricity_generators",
            "units": "kWh",
            "value": 0
          },
          {
            "name": "end_use_natural_gas_heating",
            "units": "therms",
            "value": 43292.51
          },
          {
            "name": "end_use_natural_gas_cooling",
            "units": "therms",
            "value": 0
          },
          {
            "name": "end_use_natural_gas_interior_lighting",
            "units": "therms",
            "value": 0
          },
          {
            "name": "end_use_natural_gas_exterior_lighting",
            "units": "therms",
            "value": 0
          },
          {
            "name": "end_use_natural_gas_interior_equipment",
            "units": "therms",
            "value": 0
          },
          {
            "name": "end_use_natural_gas_exterior_equipment",
            "units": "therms",
            "value": 0
          },
          {
            "name": "end_use_natural_gas_fans",
            "units": "therms",
            "value": 0
          },
          {
            "name": "end_use_natural_gas_pumps",
            "units": "therms",
            "value": 0
          },
          {
            "name": "end_use_natural_gas_heat_rejection",
            "units": "therms",
            "value": 0
          },
          {
            "name": "end_use_natural_gas_humidification",
            "units": "therms",
            "value": 0
          },
          {
            "name": "end_use_natural_gas_heat_recovery",
            "units": "therms",
            "value": 0
          },
          {
            "name": "end_use_natural_gas_water_systems",
            "units": "therms",
            "value": 0
          },
          {
            "name": "end_use_natural_gas_refrigeration",
            "units": "therms",
            "value": 0
          },
          {
            "name": "end_use_natural_gas_generators",
            "units": "therms",
            "value": 0
          },
          {
            "name": "electricity_heating_ip",
            "units": "kWh",
            "value": 0
          },
          {
            "name": "electricity_cooling_ip",
            "units": "kWh",
            "value": 72565.27
          },
          {
            "name": "electricity_interior_lighting_ip",
            "units": "kWh",
            "value": 305049.22
          },
          {
            "name": "electricity_exterior_lighting_ip",
            "units": "kWh",
            "value": 0
          },
          {
            "name": "electricity_interior_equipment_ip",
            "units": "kWh",
            "value": 305049.22
          },
          {
            "name": "electricity_exterior_equipment_ip",
            "units": "kWh",
            "value": 0
          },
          {
            "name": "electricity_fans_ip",
            "units": "kWh",
            "value": 140414.44
          },
          {
            "name": "electricity_pumps_ip",
            "units": "kWh",
            "value": 0
          },
          {
            "name": "electricity_heat_rejection_ip",
            "units": "kWh",
            "value": 0
          },
          {
            "name": "electricity_humidification_ip",
            "units": "kWh",
            "value": 0
          },
          {
            "name": "electricity_heat_recovery_ip",
            "units": "kWh",
            "value": 0
          },
          {
            "name": "electricity_water_systems_ip",
            "units": "kWh",
            "value": 0
          },
          {
            "name": "electricity_refrigeration_ip",
            "units": "kWh",
            "value": 0
          },
          {
            "name": "electricity_generators_ip",
            "units": "kWh",
            "value": 0
          },
          {
            "name": "electricity_ip",
            "units": "kWh",
            "value": 823078.16
          },
          {
            "name": "natural_gas_heating_ip",
            "units": "MBtu",
            "value": 4328.41
          },
          {
            "name": "natural_gas_cooling_ip",
            "units": "MBtu",
            "value": 0
          },
          {
            "name": "natural_gas_interior_lighting_ip",
            "units": "MBtu",
            "value": 0
          },
          {
            "name": "natural_gas_exterior_lighting_ip",
            "units": "MBtu",
            "value": 0
          },
          {
            "name": "natural_gas_interior_equipment_ip",
            "units": "MBtu",
            "value": 0
          },
          {
            "name": "natural_gas_exterior_equipment_ip",
            "units": "MBtu",
            "value": 0
          },
          {
            "name": "natural_gas_fans_ip",
            "units": "MBtu",
            "value": 0
          },
          {
            "name": "natural_gas_pumps_ip",
            "units": "MBtu",
            "value": 0
          },
          {
            "name": "natural_gas_heat_rejection_ip",
            "units": "MBtu",
            "value": 0
          },
          {
            "name": "natural_gas_humidification_ip",
            "units": "MBtu",
            "value": 0
          },
          {
            "name": "natural_gas_heat_recovery_ip",
            "units": "MBtu",
            "value": 0
          },
          {
            "name": "natural_gas_water_systems_ip",
            "units": "MBtu",
            "value": 0
          },
          {
            "name": "natural_gas_refrigeration_ip",
            "units": "MBtu",
            "value": 0
          },
          {
            "name": "natural_gas_generators_ip",
            "units": "MBtu",
            "value": 0
          },
          {
            "name": "natural_gas_ip",
            "units": "MBtu",
            "value": 4328.41
          },
          {
            "name": "additional_fuel_heating_ip",
            "units": "MBtu",
            "value": 0
          },
          {
            "name": "additional_fuel_cooling_ip",
            "units": "MBtu",
            "value": 0
          },
          {
            "name": "additional_fuel_interior_lighting_ip",
            "units": "MBtu",
            "value": 0
          },
          {
            "name": "additional_fuel_exterior_lighting_ip",
            "units": "MBtu",
            "value": 0
          },
          {
            "name": "additional_fuel_interior_equipment_ip",
            "units": "MBtu",
            "value": 0
          },
          {
            "name": "additional_fuel_exterior_equipment_ip",
            "units": "MBtu",
            "value": 0
          },
          {
            "name": "additional_fuel_fans_ip",
            "units": "MBtu",
            "value": 0
          },
          {
            "name": "additional_fuel_pumps_ip",
            "units": "MBtu",
            "value": 0
          },
          {
            "name": "additional_fuel_heat_rejection_ip",
            "units": "MBtu",
            "value": 0
          },
          {
            "name": "additional_fuel_humidification_ip",
            "units": "MBtu",
            "value": 0
          },
          {
            "name": "additional_fuel_heat_recovery_ip",
            "units": "MBtu",
            "value": 0
          },
          {
            "name": "additional_fuel_water_systems_ip",
            "units": "MBtu",
            "value": 0
          },
          {
            "name": "additional_fuel_refrigeration_ip",
            "units": "MBtu",
            "value": 0
          },
          {
            "name": "additional_fuel_generators_ip",
            "units": "MBtu",
            "value": 0
          },
          {
            "name": "additional_fuel_ip",
            "units": "MBtu",
            "value": 0
          },
          {
            "name": "district_cooling_heating_ip",
            "units": "MBtu",
            "value": 0
          },
          {
            "name": "district_cooling_cooling_ip",
            "units": "MBtu",
            "value": 0
          },
          {
            "name": "district_cooling_interior_lighting_ip",
            "units": "MBtu",
            "value": 0
          },
          {
            "name": "district_cooling_exterior_lighting_ip",
            "units": "MBtu",
            "value": 0
          },
          {
            "name": "district_cooling_interior_equipment_ip",
            "units": "MBtu",
            "value": 0
          },
          {
            "name": "district_cooling_exterior_equipment_ip",
            "units": "MBtu",
            "value": 0
          },
          {
            "name": "district_cooling_fans_ip",
            "units": "MBtu",
            "value": 0
          },
          {
            "name": "district_cooling_pumps_ip",
            "units": "MBtu",
            "value": 0
          },
          {
            "name": "district_cooling_heat_rejection_ip",
            "units": "MBtu",
            "value": 0
          },
          {
            "name": "district_cooling_humidification_ip",
            "units": "MBtu",
            "value": 0
          },
          {
            "name": "district_cooling_heat_recovery_ip",
            "units": "MBtu",
            "value": 0
          },
          {
            "name": "district_cooling_water_systems_ip",
            "units": "MBtu",
            "value": 0
          },
          {
            "name": "district_cooling_refrigeration_ip",
            "units": "MBtu",
            "value": 0
          },
          {
            "name": "district_cooling_generators_ip",
            "units": "MBtu",
            "value": 0
          },
          {
            "name": "district_cooling_ip",
            "units": "MBtu",
            "value": 0
          },
          {
            "name": "district_heating_heating_ip",
            "units": "MBtu",
            "value": 0
          },
          {
            "name": "district_heating_cooling_ip",
            "units": "MBtu",
            "value": 0
          },
          {
            "name": "district_heating_interior_lighting_ip",
            "units": "MBtu",
            "value": 0
          },
          {
            "name": "district_heating_exterior_lighting_ip",
            "units": "MBtu",
            "value": 0
          },
          {
            "name": "district_heating_interior_equipment_ip",
            "units": "MBtu",
            "value": 0
          },
          {
            "name": "district_heating_exterior_equipment_ip",
            "units": "MBtu",
            "value": 0
          },
          {
            "name": "district_heating_fans_ip",
            "units": "MBtu",
            "value": 0
          },
          {
            "name": "district_heating_pumps_ip",
            "units": "MBtu",
            "value": 0
          },
          {
            "name": "district_heating_heat_rejection_ip",
            "units": "MBtu",
            "value": 0
          },
          {
            "name": "district_heating_humidification_ip",
            "units": "MBtu",
            "value": 0
          },
          {
            "name": "district_heating_heat_recovery_ip",
            "units": "MBtu",
            "value": 0
          },
          {
            "name": "district_heating_water_systems_ip",
            "units": "MBtu",
            "value": 0
          },
          {
            "name": "district_heating_refrigeration_ip",
            "units": "MBtu",
            "value": 0
          },
          {
            "name": "district_heating_generators_ip",
            "units": "MBtu",
            "value": 0
          },
          {
            "name": "district_heating_ip",
            "units": "MBtu",
            "value": 0
          },
          {
            "name": "water_heating_ip",
            "units": "MBtu",
            "value": 0
          },
          {
            "name": "water_cooling_ip",
            "units": "MBtu",
            "value": 0
          },
          {
            "name": "water_interior_lighting_ip",
            "units": "MBtu",
            "value": 0
          },
          {
            "name": "water_exterior_lighting_ip",
            "units": "MBtu",
            "value": 0
          },
          {
            "name": "water_interior_equipment_ip",
            "units": "MBtu",
            "value": 0
          },
          {
            "name": "water_exterior_equipment_ip",
            "units": "MBtu",
            "value": 0
          },
          {
            "name": "water_fans_ip",
            "units": "MBtu",
            "value": 0
          },
          {
            "name": "water_pumps_ip",
            "units": "MBtu",
            "value": 0
          },
          {
            "name": "water_heat_rejection_ip",
            "units": "MBtu",
            "value": 0
          },
          {
            "name": "water_humidification_ip",
            "units": "MBtu",
            "value": 0
          },
          {
            "name": "water_heat_recovery_ip",
            "units": "MBtu",
            "value": 0
          },
          {
            "name": "water_water_systems_ip",
            "units": "MBtu",
            "value": 0
          },
          {
            "name": "water_refrigeration_ip",
            "units": "MBtu",
            "value": 0
          },
          {
            "name": "water_generators_ip",
            "units": "MBtu",
            "value": 0
          },
          {
            "name": "water_ip",
            "units": "MBtu",
            "value": 0
          },
          {
            "name": "ashrae_189_1_2009_ext_roof_iead_climate_zone_2_5",
            "units": "ft^2",
            "value": 53819.55
          },
          {
            "name": "ashrae_189_1_2009_ext_wall_steel_frame_climate_zone_4_8",
            "units": "ft^2",
            "value": 15500.03
          },
          {
            "name": "ashrae_189_1_2009_ext_window_climate_zone_4_5",
            "units": "ft^2",
            "value": 10333.35
          },
          {
            "name": "gross_window_wall_ratio",
            "units": "%",
            "value": 40
          },
          {
            "name": "gross_window_wall_ratio_conditioned",
            "units": "%",
            "value": 40
          },
          {
            "name": "skylight_roof_ratio",
            "units": "%",
            "value": 0
          },
          {
            "name": "space_type_baseline_model_space_type",
            "units": "ft^2",
            "value": 107639.1
          },
          {
            "name": "exterior_lighting_total_power",
            "units": "W",
            "value": 0
          },
          {
            "name": "exterior_lighting_total_consumption",
            "units": "kWh",
            "value": 2091611.11
          },
          {
            "name": "inflation_approach",
            "value": "Constant Dollar"
          },
          {
            "name": "analysis_length",
            "units": "yrs",
            "value": 25
          },
          {
            "name": "annual_peak_electric_demand",
            "units": "kW",
            "value": 352.29
          },
          {
            "name": "first_year_capital_cost",
            "units": "$",
            "value": 0
          },
          {
            "name": "annual_utility_cost",
            "units": "$",
            "value": 0
          },
          {
            "name": "total_lifecycle_cost",
            "units": "$",
            "value": 0
          }
        ],
        "step_warnings": [

        ]
      }
    }
  ],
  "weather_file": "../../weatherdata/USA_IL_Chicago-OHare.Intl.AP.725300_TMY3.epw"
}