{
  "completed_status": "Success",
  "current_step": 1,
  "eplusout_err": [
    "Program Version,EnergyPlus, Version 9.4.0-4856dd3d6e, ",
    "   ************* Beginning Zone Sizing Calculations",
    "   ** Warning ** ProcessScheduleInput: Schedule:Day:Interval=\"SCHEDULE DAY 2\", Blank Schedule Type Limits Name input -- will not be validated.",
    "   ** Warning ** ProcessScheduleInput: Schedule:Day:Interval=\"SCHEDULE DAY 3\", Blank Schedule Type Limits Name input -- will not be validated.",
    "   ** Warning ** ProcessScheduleInput: Schedule:Day:Interval=\"SCHEDULE DAY 4\", Blank Schedule Type Limits Name input -- will not be validated.",
    "   ** Warning ** ProcessScheduleInput: Schedule:Day:Interval=\"SCHEDULE DAY 5\", Blank Schedule Type Limits Name input -- will not be validated.",
    "   ** Warning ** ProcessScheduleInput: Schedule:Constant=\"ALWAYS OFF DISCRETE\", Blank Schedule Type Limits Name input -- will not be validated.",
    "   ** Warning ** ProcessScheduleInput: Schedule:Constant=\"ALWAYS ON CONTINUOUS\", Blank Schedule Type Limits Name input -- will not be validated.",
    "   ** Warning ** GetHTSurfaceData: Surfaces with interface to Ground found but no \"Ground Temperatures\" were input.",
    "   **   ~~~   ** Found first in surface=SURFACE 25",
    "   **   ~~~   ** Defaults, constant throughout the year of (18.0) will be used.",
    "   ** Warning ** CheckUsedConstructions: There are 8 nominally unused constructions in input.",
    "   **   ~~~   ** For explicit details on each unused construction, use Output:Diagnostics,DisplayExtraWarnings;",
    "   ** Warning ** Capacity ratio as a function of temperature curve output is not equal to 1.0",
    "   **   ~~~   ** (+ or - 10%) at reference conditions for ChillerHeaterPerformance:Electric:EIR= CHILLER HEATER PERFORMANCE ELECTRIC EIR 1",
    "   **   ~~~   ** Curve output at reference conditions = 1.202",
    "   ** Warning ** Energy input ratio as a function of temperature curve output is not equal to 1.0",
    "   **   ~~~   ** (+ or - 10%) at reference conditions for ChillerHeaterPerformance:Electric:EIR= CHILLER HEATER PERFORMANCE ELECTRIC EIR 1",
    "   **   ~~~   ** Curve output at reference conditions = 0.656",
    "   ** Warning ** Capacity ratio as a function of temperature curve output is not equal to 1.0",
    "   **   ~~~   ** (+ or - 10%) at reference conditions for ChillerHeaterPerformance:Electric:EIR= CHILLER HEATER PERFORMANCE ELECTRIC EIR 2",
    "   **   ~~~   ** Curve output at reference conditions = 1.202",
    "   ** Warning ** Energy input ratio as a function of temperature curve output is not equal to 1.0",
    "   **   ~~~   ** (+ or - 10%) at reference conditions for ChillerHeaterPerformance:Electric:EIR= CHILLER HEATER PERFORMANCE ELECTRIC EIR 2",
    "   **   ~~~   ** Curve output at reference conditions = 0.656",
    "   ************* Beginning System Sizing Calculations",
    "   ** Warning ** Since Zone Minimum Air Flow Input Method = CONSTANT, input for Fixed Minimum Air Flow Rate will be ignored.",
    "   **   ~~~   ** Occurs in AirTerminal:SingleDuct:VAV:Reheat = STORY 1 CORE THERMAL ZONE ATU VAV REHEAT",
    "   ** Warning ** Since Zone Minimum Air Flow Input Method = CONSTANT, input for Fixed Minimum Air Flow Rate will be ignored.",
    "   **   ~~~   ** Occurs in AirTerminal:SingleDuct:VAV:Reheat = STORY 1 EAST PERIMETER THERMAL ZONE ATU VAV REHEAT",
    "   ** Warning ** Since Zone Minimum Air Flow Input Method = CONSTANT, input for Fixed Minimum Air Flow Rate will be ignored.",
    "   **   ~~~   ** Occurs in AirTerminal:SingleDuct:VAV:Reheat = STORY 1 NORTH PERIMETER THERMAL ZONE ATU VAV REHEAT",
    "   ** Warning ** Since Zone Minimum Air Flow Input Method = CONSTANT, input for Fixed Minimum Air Flow Rate will be ignored.",
    "   **   ~~~   ** Occurs in AirTerminal:SingleDuct:VAV:Reheat = STORY 1 SOUTH PERIMETER THERMAL ZONE ATU VAV REHEAT",
    "   ** Warning ** Since Zone Minimum Air Flow Input Method = CONSTANT, input for Fixed Minimum Air Flow Rate will be ignored.",
    "   **   ~~~   ** Occurs in AirTerminal:SingleDuct:VAV:Reheat = STORY 1 WEST PERIMETER THERMAL ZONE ATU VAV REHEAT",
    "   ************* Beginning Plant Sizing Calculations",
    "   ** Warning ** GetOAControllerInputs: Controller:MechanicalVentilation=\"CONTROLLER MECHANICAL VENTILATION 1",
    "   **   ~~~   ** Cannot locate a matching DesignSpecification:ZoneAirDistribution object for Zone=\"STORY 1 CORE THERMAL ZONE\".",
    "   **   ~~~   ** Using default zone air distribution effectiveness of 1.0 for heating and cooling.",
    "   ** Warning ** GetOAControllerInputs: Controller:MechanicalVentilation=\"CONTROLLER MECHANICAL VENTILATION 1",
    "   **   ~~~   ** Cannot locate a matching DesignSpecification:ZoneAirDistribution object for Zone=\"STORY 1 EAST PERIMETER THERMAL ZONE\".",
    "   **   ~~~   ** Using default zone air distribution effectiveness of 1.0 for heating and cooling.",
    "   ** Warning ** GetOAControllerInputs: Controller:MechanicalVentilation=\"CONTROLLER MECHANICAL VENTILATION 1",
    "   **   ~~~   ** Cannot locate a matching DesignSpecification:ZoneAirDistribution object for Zone=\"STORY 1 NORTH PERIMETER THERMAL ZONE\".",
    "   **   ~~~   ** Using default zone air distribution effectiveness of 1.0 for heating and cooling.",
    "   ** Warning ** GetOAControllerInputs: Controller:MechanicalVentilation=\"CONTROLLER MECHANICAL VENTILATION 1",
    "   **   ~~~   ** Cannot locate a matching DesignSpecification:ZoneAirDistribution object for Zone=\"STORY 1 SOUTH PERIMETER THERMAL ZONE\".",
    "   **   ~~~   ** Using default zone air distribution effectiveness of 1.0 for heating and cooling.",
    "   ** Warning ** GetOAControllerInputs: Controller:MechanicalVentilation=\"CONTROLLER MECHANICAL VENTILATION 1",
    "   **   ~~~   ** Cannot locate a matching DesignSpecification:ZoneAirDistribution object for Zone=\"STORY 1 WEST PERIMETER THERMAL ZONE\".",
    "   **   ~~~   ** Using default zone air distribution effectiveness of 1.0 for heating and cooling.",
    "   ** Warning ** Missing temperature setpoint on cooling side for CentralHeatPumpSystem named CENTRALHEATPUMPSYSTEM",
    "   **   ~~~   **   A temperature setpoint is needed at the outlet node of a CentralHeatPumpSystem, use a SetpointManager",
    "   **   ~~~   **   The overall loop setpoint will be assumed for CentralHeatPumpSystem. The simulation continues ... ",
    "   ** Warning ** Missing temperature setpoint on heating side for CentralHeatPumpSystem named CENTRALHEATPUMPSYSTEM",
    "   **   ~~~   **   A temperature setpoint is needed at the outlet node of a CentralHeatPumpSystem, use a SetpointManager",
    "   **   ~~~   **   The overall loop setpoint will be assumed for CentralHeatPumpSystem. The simulation continues ... ",
    "   ** Severe  ** CalcChillerHeaterModel: ChillerHeaterPerformance:Electric:EIR=\"CHILLER HEATER PERFORMANCE ELECTRIC EIR 1\", DeltaTemp < 0",
    "   **   ~~~   **  Reference Simultaneous Cooling-Heating Mode Leaving Condenser Water Temperature [60.0]",
    "   **   ~~~   ** is below condenser inlet temperature of [60.3].",
    "   **   ~~~   **  During Warmup, Environment=CHICAGO OHARE INTL AP ANN HTG 99.6% CONDNS DB, at Simulation time=01/21 00:00 - 00:15",
    "   **   ~~~   **  Reset reference temperature to one greater than the inlet temperature ",
    "   ** Severe  ** CalcChillerHeaterModel: ChillerHeaterPerformance:Electric:EIR=\"CHILLER HEATER PERFORMANCE ELECTRIC EIR 2\", DeltaTemp < 0",
    "   **   ~~~   **  Reference Simultaneous Cooling-Heating Mode Leaving Condenser Water Temperature [60.0]",
    "   **   ~~~   ** is below condenser inlet temperature of [60.3].",
    "   **   ~~~   **  During Warmup, Environment=CHICAGO OHARE INTL AP ANN HTG 99.6% CONDNS DB, at Simulation time=01/21 00:00 - 00:15",
    "   **   ~~~   **  Reset reference temperature to one greater than the inlet temperature ",
    "   ** Severe  ** CalcChillerHeaterModel: ChillerHeaterPerformance:Electric:EIR=\"CHILLER HEATER PERFORMANCE ELECTRIC EIR 2\", DeltaTemp < 0",
    "   **   ~~~   **  Reference Simultaneous Cooling-Heating Mode Leaving Condenser Water Temperature [60.0]",
    "   **   ~~~   ** is below condenser inlet temperature of [60.3].",
    "   **   ~~~   **  During Warmup, Environment=CHICAGO OHARE INTL AP ANN HTG 99.6% CONDNS DB, at Simulation time=01/21 00:00 - 00:15",
    "   **   ~~~   **  Reset reference temperature to one greater than the inlet temperature ",
    "   ** Warning ** Output:Meter: invalid Key Name=\"GAS:FACILITY\" - not found.",
    "   ** Warning ** Output:Meter: invalid Key Name=\"DISTRICTCOOLING:FACILITY\" - not found.",
    "   ** Warning ** Output:Meter: invalid Key Name=\"DISTRICTHEATING:FACILITY\" - not found.",
    "   ** Warning ** Output:Meter:MeterFileOnly: invalid Key Name=\"GAS:FACILITY\" - not found.",
    "   ** Warning ** Output:Meter:MeterFileOnly requested for \"Electricity:Facility\" (TimeStep), already on \"Output:Meter\". Will report to both eplusout.eso and eplusout.mtr",
    "   ************* Testing Individual Branch Integrity",
    "   ************* All Branches passed integrity testing",
    "   ************* Testing Individual Supply Air Path Integrity",
    "   ************* All Supply Air Paths passed integrity testing",
    "   ************* Testing Individual Return Air Path Integrity",
    "   ************* All Return Air Paths passed integrity testing",
    "   ************* No node connection errors were found.",
    "   ************* Beginning Simulation",
    "   ** Severe  ** FindRootSimpleController: Controller error for controller = \"CONTROLLER WATER COIL 1\"",
    "   **   ~~~   **  Environment=RUN PERIOD 1, at Simulation time=01/01 00:00 - 00:15",
    "   **   ~~~   **   Controller function is inconsistent with user specified controller action = Normal action",
    "   **   ~~~   **   Actuator will be set to maximum action",
    "   **   ~~~   ** Controller control type=Temperature",
    "   **   ~~~   ** Controller temperature setpoint = 12.60 [C]",
    "   **   ~~~   ** Controller sensed temperature = 7.62 [C]",
    "   **   ~~~   ** Controller actuator mass flow rate set to 3.76 [kg/s]",
    "   **   ~~~   ** Controller actuator temperature = 4.62 [C]",
    "   **   ~~~   **   Note: Chilled water coils should be reverse action and the entering chilled",
    "   **   ~~~   **         water temperature (controller actuator temperature) should be below the setpoint temperature",
    "   **   ~~~   **   Note: Hot water coils should be normal action and the entering hot",
    "   **   ~~~   **         water temperature (controller actuator temperature) should be above the setpoint temperature",
    "   ** Warning ** GetDensityGlycol: Temperature is out of range (too low) for fluid [WATER] density **",
    "   **   ~~~   ** ..Called From:CalcChillerHeaterModel,Temperature=[-0.98], supplied data range=[0.00,100.00]",
    "   **   ~~~   **  Environment=RUN PERIOD 1, at Simulation time=01/01 00:00 - 00:15",
    "   ** Warning ** GetSpecificHeatGlycol: Temperature is out of range (too low) for fluid [WATER] specific heat supplied values **",
    "   **   ~~~   ** ..Called From:UpdateHalfLoopInletTemp,Temperature=[-0.92], supplied data range=[0.00,125.00]",
    "   **   ~~~   **  Environment=RUN PERIOD 1, at Simulation time=01/01 00:00 - 00:15",
    "   ** Warning ** CoolingTower:SingleSpeed \"CNDW LOOP COOLINGTOWERSINGLESPEED\"",
    "   **   ~~~   ** Cooling tower water outlet temperature (-1.04 C) is below the specified minimum condenser loop temp of 0.00 C",
    "   **   ~~~   **  Environment=RUN PERIOD 1, at Simulation time=01/01 00:00 - 00:15",
    "   ** Warning ** Processing Monthly Tabular Reports: Variable names not valid for this simulation",
    "   **   ~~~   ** ...use Output:Diagnostics,DisplayExtraWarnings; to show more details on individual variables.",
    "   ** Warning ** SimHVAC: Maximum iterations (20) exceeded for all HVAC loops, at RUN PERIOD 1, 02/10 12:11 - 12:15",
    "   **   ~~~   ** The solution for one or more of the Air Loop HVAC systems did not appear to converge",
    "   **   ~~~   ** ...use Output:Diagnostics,DisplayExtraWarnings; to show more details on each max iteration exceeded.",
    "   ** Warning ** The resource referenced by LifeCycleCost:UsePriceEscalation= \"U.S. AVG  COMMERCIAL-ELECTRICITY\" has no energy cost. ",
    "   **   ~~~   ** ... It is likely that the wrong resource is used. The resource should match the meter used in Utility:Tariff.",
    "   ** Warning ** The resource referenced by LifeCycleCost:UsePriceEscalation= \"U.S. AVG  COMMERCIAL-DISTILLATE OIL\" has no energy cost. ",
    "   **   ~~~   ** ... It is likely that the wrong resource is used. The resource should match the meter used in Utility:Tariff.",
    "   ** Warning ** The resource referenced by LifeCycleCost:UsePriceEscalation= \"U.S. AVG  COMMERCIAL-RESIDUAL OIL\" has no energy cost. ",
    "   **   ~~~   ** ... It is likely that the wrong resource is used. The resource should match the meter used in Utility:Tariff.",
    "   ** Warning ** The resource referenced by LifeCycleCost:UsePriceEscalation= \"U.S. AVG  COMMERCIAL-NATURAL GAS\" has no energy cost. ",
    "   **   ~~~   ** ... It is likely that the wrong resource is used. The resource should match the meter used in Utility:Tariff.",
    "   ** Warning ** The resource referenced by LifeCycleCost:UsePriceEscalation= \"U.S. AVG  COMMERCIAL-COAL\" has no energy cost. ",
    "   **   ~~~   ** ... It is likely that the wrong resource is used. The resource should match the meter used in Utility:Tariff.",
    "   ************* Simulation Error Summary *************",
    "   ************* There are 2 unused schedules in input.",
    "   ************* There are 2 unused week schedules in input.",
    "   ************* There are 6 unused day schedules in input.",
    "   ************* Use Output:Diagnostics,DisplayUnusedSchedules; to see them.",
    "   *************",
    "   ************* ===== Recurring Error Summary =====",
    "   ************* The following recurring error messages occurred.",
    "   *************",
    "   *************  ** Severe  ** ChillerHeaterPerformance:Electric:EIR=\"CHILLER HEATER PERFORMANCE ELECTRIC EIR 1\": Reference temperature problems continue.",
    "   *************  **   ~~~   **   This error occurred 110 total times;",
    "   *************  **   ~~~   **   during Warmup 110 times;",
    "   *************  **   ~~~   **   during Sizing 0 times.",
    "   *************  **   ~~~   **   Max=-1.379454E-002 deltaC  Min=-5.904547 deltaC",
    "   *************",
    "   *************  ** Severe  ** ChillerHeaterPerformance:Electric:EIR=\"CHILLER HEATER PERFORMANCE ELECTRIC EIR 2\": Reference temperature problems continue.",
    "   *************  **   ~~~   **   This error occurred 220 total times;",
    "   *************  **   ~~~   **   during Warmup 220 times;",
    "   *************  **   ~~~   **   during Sizing 0 times.",
    "   *************  **   ~~~   **   Max=-1.379454E-002 deltaC  Min=-5.904547 deltaC",
    "   *************",
    "   *************  ** Warning ** Plant loop falling below lower temperature limit, PlantLoop=\"CNDW LOOP\"",
    "   *************  **   ~~~   **   This error occurred 16557 total times;",
    "   *************  **   ~~~   **   during Warmup 792 times;",
    "   *************  **   ~~~   **   during Sizing 0 times.",
    "   *************  **   ~~~   **   Min=-19.523461",
    "   *************",
    "   *************  ** Warning ** GetDensityGlycol: Temperature out of range (too low) for fluid [WATER] density **",
    "   *************  **   ~~~   **   This error occurred 1841967 total times;",
    "   *************  **   ~~~   **   during Warmup 0 times;",
    "   *************  **   ~~~   **   during Sizing 0 times.",
    "   *************  **   ~~~   **   Max=-2.014430E-005 {C}  Min=-19.523461 {C}",
    "   *************",
    "   *************  ** Warning ** GetSpecificHeatGlycol: Temperature out of range (too low) for fluid [WATER] specific heat **",
    "   *************  **   ~~~   **   This error occurred 289490 total times;",
    "   *************  **   ~~~   **   during Warmup 0 times;",
    "   *************  **   ~~~   **   during Sizing 0 times.",
    "   *************  **   ~~~   **   Max=-1.622210E-006 {C}  Min=-19.523461 {C}",
    "   *************",
    "   *************  ** Warning ** CoolingTower:SingleSpeed \"CNDW LOOP COOLINGTOWERSINGLESPEED\" Cooling tower water outlet temperature is below the specified minimum condenser loop temp error continues...",
    "   *************  **   ~~~   **   This error occurred 110127 total times;",
    "   *************  **   ~~~   **   during Warmup 0 times;",
    "   *************  **   ~~~   **   during Sizing 0 times.",
    "   *************  **   ~~~   **   Max=-3.185363E-005  Min=-19.523461",
    "   *************",
    "   *************  ** Severe  ** FindRootSimpleController: Previous controller action error continues for controller = CONTROLLER WATER COIL 1",
    "   *************  **   ~~~   **   This error occurred 28738 total times;",
    "   *************  **   ~~~   **   during Warmup 0 times;",
    "   *************  **   ~~~   **   during Sizing 0 times.",
    "   *************",
    "   *************  ** Warning ** Plant loop falling below lower temperature limit, PlantLoop=\"HW LOOP\"",
    "   *************  **   ~~~   **   This error occurred 3137 total times;",
    "   *************  **   ~~~   **   during Warmup 0 times;",
    "   *************  **   ~~~   **   during Sizing 0 times.",
    "   *************  **   ~~~   **   Min=-11.336396",
    "   *************",
    "   *************",
    "   ************* ===== Final Error Summary =====",
    "   ************* The following error categories occurred.  Consider correcting or noting.",
    "   ************* Nominally Unused Constructions",
    "   ************* ..The nominally unused constructions warning is provided to alert you to potential conditions that can cause",
    "   ************* ..extra time during simulation. Each construction is calculated by the algorithm indicated in the HeatBalanceAlgorithm",
    "   ************* ..object. You may remove the constructions indicated (when you use the DisplayExtraWarnings option).",
    "   *************",
    "   ************* EnergyPlus Warmup Error Summary. During Warmup: 0 Warning; 0 Severe Errors.",
    "   ************* EnergyPlus Sizing Error Summary. During Sizing: 17 Warning; 0 Severe Errors.",
    "   ************* EnergyPlus Completed Successfully-- 2261315 Warning; 29069 Severe Errors; "
  ],
  "file_paths": [
    "/home/julien/Software/Others/OpenStudio-resources/testruns/centralheatpumpsystem.rb/generated_files",
    "./files",
    "./weather",
    "../../files",
    "../../weather",
    "./"
  ],
  "seed_file": "in.osm",
  "steps": [
    {
      "arguments": {
      },
      "measure_dir_name": "openstudio_results",
      "result": {
        "measure_class_name": "OpenStudioResults",
        "measure_display_name": "OpenStudio Results",
        "measure_name": "openstudio_results",
        "measure_taxonomy": "Reporting.QAQC",
        "measure_type": "ReportingMeasure",
        "measure_uid": "a25386cd-60e4-46bc-8b11-c755f379d916",
        "measure_version_id": "02ad7007-fe7b-4747-bd7a-29d697c4d91a",
        "measure_version_modified": "20180711T183039Z",
        "measure_xml_checksum": "557BF06F",
        "stderr": "",
        "stdout": "",
        "step_errors": [

        ],
        "step_final_condition": "Generated report with 18 sections to ./report.html.",
        "step_info": [

        ],
        "step_initial_condition": "Gathering data from EnergyPlus SQL file and OSM model.",
        "step_result": "Success",
        "step_values": [
          {
            "name": "building_summary_section",
            "value": true
          },
          {
            "name": "annual_overview_section",
            "value": true
          },
          {
            "name": "monthly_overview_section",
            "value": true
          },
          {
            "name": "utility_bills_rates_section",
            "value": true
          },
          {
            "name": "envelope_section_section",
            "value": true
          },
          {
            "name": "space_type_breakdown_section",
            "value": true
          },
          {
            "name": "space_type_details_section",
            "value": true
          },
          {
            "name": "interior_lighting_section",
            "value": true
          },
          {
            "name": "plug_loads_section",
            "value": true
          },
          {
            "name": "exterior_light_section",
            "value": true
          },
          {
            "name": "water_use_section",
            "value": true
          },
          {
            "name": "hvac_load_profile",
            "value": true
          },
          {
            "name": "zone_condition_section",
            "value": true
          },
          {
            "name": "zone_summary_section",
            "value": true
          },
          {
            "name": "zone_equipment_detail_section",
            "value": true
          },
          {
            "name": "air_loops_detail_section",
            "value": true
          },
          {
            "name": "plant_loops_detail_section",
            "value": true
          },
          {
            "name": "outdoor_air_section",
            "value": true
          },
          {
            "name": "cost_summary_section",
            "value": true
          },
          {
            "name": "source_energy_section",
            "value": true
          },
          {
            "name": "schedules_overview_section",
            "value": true
          },
          {
            "name": "standards_gem_version",
            "value": "0.2.11"
          },
          {
            "name": "workflow_gem_version",
            "value": "2.0.1"
          },
          {
            "display_name": "Building 1",
            "name": "building_name",
            "value": "n/a"
          },
          {
            "name": "total_site_energy",
            "units": "kBtu",
            "value": 7709582.37
          },
          {
            "name": "net_site_energy",
            "units": "kBtu",
            "value": 7709582.37
          },
          {
            "name": "total_building_area",
            "units": "ft^2",
            "value": 53819.55
          },
          {
            "name": "total_site_eui",
            "units": "kBtu/ft^2",
            "value": 143.25
          },
          {
            "name": "eui",
            "units": "kBtu/ft^2",
            "value": 143.25
          },
          {
            "name": "unmet_hours_during_heating",
            "units": "hr",
            "value": 8210.5
          },
          {
            "name": "unmet_hours_during_cooling",
            "units": "hr",
            "value": 0.0
          },
          {
            "name": "unmet_hours_during_occupied_heating",
            "units": "hr",
            "value": 4720.5
          },
          {
            "name": "unmet_hours_during_occupied_cooling",
            "units": "hr",
            "value": 0.0
          },
          {
            "name": "unmet_hours_tolerance_heating",
            "units": "F",
            "value": 0.36
          },
          {
            "name": "unmet_hours_tolerance_cooling",
            "units": "F",
            "value": 0.36
          },
          {
            "name": "ashrae_189_1_2009_ext_roof_iead_climate_zone_2_5",
            "units": "ft^2",
            "value": 53819.55
          },
          {
            "name": "ashrae_189_1_2009_ext_wall_steel_frame_climate_zone_4_8",
            "units": "ft^2",
            "value": 5812.51
          },
          {
            "name": "ashrae_189_1_2009_ext_window_climate_zone_4_5",
            "units": "ft^2",
            "value": 3875.01
          },
          {
            "name": "gross_window_wall_ratio",
            "units": "%",
            "value": 40.0
          },
          {
            "name": "gross_window_wall_ratio_conditioned",
            "units": "%",
            "value": 40.0
          },
          {
            "name": "skylight_roof_ratio",
            "units": "%",
            "value": 0.0
          },
          {
            "name": "space_type_baseline_model_space_type",
            "units": "ft^2",
            "value": 53819.55
          },
          {
            "name": "exterior_lighting_total_power",
            "units": "W",
            "value": 0.0
          },
          {
            "name": "exterior_lighting_total_consumption",
            "units": "kWh",
            "value": 2259455.56
          },
          {
            "name": "inflation_approach",
            "value": "Constant Dollar"
          },
          {
            "name": "analysis_length",
            "units": "yrs",
            "value": 25
          },
          {
            "name": "annual_peak_electric_demand",
            "units": "kW",
            "value": 1263.16
          },
          {
            "name": "first_year_capital_cost",
            "units": "$",
            "value": 0.0
          },
          {
            "name": "annual_utility_cost",
            "units": "$",
            "value": 0.0
          },
          {
            "name": "total_lifecycle_cost",
            "units": "$",
            "value": 0.0
          }
        ],
        "step_warnings": [
          "Annual Overview section failed and was skipped because: Optional not initialized. Detail on error follows.",
          "/home/julien/Software/Others/OpenStudio-resources/measures/openstudio_results/measure.rb:237:in `eval'\n/home/julien/Software/Others/OpenStudio-resources/measures/openstudio_results/resources/os_lib_reporting.rb:501:in `block in output_data_end_use_table'\n/home/julien/Software/Others/OpenStudio-resources/measures/openstudio_results/resources/os_lib_reporting.rb:491:in `each'\n/home/julien/Software/Others/OpenStudio-resources/measures/openstudio_results/resources/os_lib_reporting.rb:491:in `output_data_end_use_table'\n/home/julien/Software/Others/OpenStudio-resources/measures/openstudio_results/resources/os_lib_reporting.rb:258:in `annual_overview_section'\n(eval):1:in `block in run'\n/home/julien/Software/Others/OpenStudio-resources/measures/openstudio_results/measure.rb:237:in `eval'\n/home/julien/Software/Others/OpenStudio-resources/measures/openstudio_results/measure.rb:237:in `block in run'\n/home/julien/Software/Others/OpenStudio-resources/measures/openstudio_results/measure.rb:233:in `each'\n/home/julien/Software/Others/OpenStudio-resources/measures/openstudio_results/measure.rb:233:in `run'\n:/ruby/2.5.0/gems/openstudio-workflow-2.0.1/lib/openstudio/workflow/util/measure.rb:514:in `apply_measure'\n:/ruby/2.5.0/gems/openstudio-workflow-2.0.1/lib/openstudio/workflow/util/measure.rb:109:in `block in apply_measures'\n:/ruby/2.5.0/gems/openstudio-workflow-2.0.1/lib/openstudio/workflow/util/measure.rb:67:in `each_index'\n:/ruby/2.5.0/gems/openstudio-workflow-2.0.1/lib/openstudio/workflow/util/measure.rb:67:in `apply_measures'\n:/ruby/2.5.0/gems/openstudio-workflow-2.0.1/lib/openstudio/workflow/jobs/run_reporting_measures.rb:105:in `perform'\n:/ruby/2.5.0/gems/openstudio-workflow-2.0.1/lib/openstudio/workflow/run.rb:292:in `step'\n:/ruby/2.5.0/gems/openstudio-workflow-2.0.1/lib/openstudio/workflow/run.rb:234:in `run'\n:/openstudio_cli.rb:963:in `execute'\n:/openstudio_cli.rb:753:in `execute'\n:/openstudio_cli.rb:1747:in `<main>'\neval:175:in `eval'\neval:175:in `require_embedded_absolute'\neval:160:in `block in require_embedded'\neval:154:in `each'\neval:154:in `require_embedded'\neval:113:in `require'\neval:3:in `<main>'",
          "Monthly Overview section failed and was skipped because: Error creating prepared statement: SELECT Value FROM TabularDataWithStrings WHERE\n                                  WHERE ReportName=?\n                                  AND ReportForString='Meter'\n                                  AND RowName=?\n                                  AND ColumnName=?\n                                  AND Units='J' with error code 1, extended code 1, errmsg: near \"WHERE\": syntax error. Detail on error follows.",
          "/home/julien/Software/Others/OpenStudio-resources/measures/openstudio_results/measure.rb:237:in `eval'\n/home/julien/Software/Others/OpenStudio-resources/measures/openstudio_results/resources/os_lib_reporting.rb:2190:in `block (3 levels) in monthly_overview_section'\n/home/julien/Software/Others/OpenStudio-resources/measures/openstudio_results/resources/os_lib_reporting.rb:2188:in `each'\n/home/julien/Software/Others/OpenStudio-resources/measures/openstudio_results/resources/os_lib_reporting.rb:2188:in `block (2 levels) in monthly_overview_section'\n/home/julien/Software/Others/OpenStudio-resources/measures/openstudio_results/resources/os_lib_reporting.rb:2182:in `each'\n/home/julien/Software/Others/OpenStudio-resources/measures/openstudio_results/resources/os_lib_reporting.rb:2182:in `block in monthly_overview_section'\n/home/julien/Software/Others/OpenStudio-resources/measures/openstudio_results/resources/os_lib_reporting.rb:2153:in `each'\n/home/julien/Software/Others/OpenStudio-resources/measures/openstudio_results/resources/os_lib_reporting.rb:2153:in `monthly_overview_section'\n(eval):1:in `block in run'\n/home/julien/Software/Others/OpenStudio-resources/measures/openstudio_results/measure.rb:237:in `eval'\n/home/julien/Software/Others/OpenStudio-resources/measures/openstudio_results/measure.rb:237:in `block in run'\n/home/julien/Software/Others/OpenStudio-resources/measures/openstudio_results/measure.rb:233:in `each'\n/home/julien/Software/Others/OpenStudio-resources/measures/openstudio_results/measure.rb:233:in `run'\n:/ruby/2.5.0/gems/openstudio-workflow-2.0.1/lib/openstudio/workflow/util/measure.rb:514:in `apply_measure'\n:/ruby/2.5.0/gems/openstudio-workflow-2.0.1/lib/openstudio/workflow/util/measure.rb:109:in `block in apply_measures'\n:/ruby/2.5.0/gems/openstudio-workflow-2.0.1/lib/openstudio/workflow/util/measure.rb:67:in `each_index'\n:/ruby/2.5.0/gems/openstudio-workflow-2.0.1/lib/openstudio/workflow/util/measure.rb:67:in `apply_measures'\n:/ruby/2.5.0/gems/openstudio-workflow-2.0.1/lib/openstudio/workflow/jobs/run_reporting_measures.rb:105:in `perform'\n:/ruby/2.5.0/gems/openstudio-workflow-2.0.1/lib/openstudio/workflow/run.rb:292:in `step'\n:/ruby/2.5.0/gems/openstudio-workflow-2.0.1/lib/openstudio/workflow/run.rb:234:in `run'\n:/openstudio_cli.rb:963:in `execute'\n:/openstudio_cli.rb:753:in `execute'\n:/openstudio_cli.rb:1747:in `<main>'\neval:175:in `eval'\neval:175:in `require_embedded_absolute'\neval:160:in `block in require_embedded'\neval:154:in `each'\neval:154:in `require_embedded'\neval:113:in `require'\neval:3:in `<main>'",
          "HVAC Load Profiles section failed and was skipped because: Error creating prepared statement: SELECT Value FROM TabularDataWithStrings WHERE\n                                  WHERE ReportName=?\n                                  AND ReportForString='Meter'\n                                  AND RowName=?\n                                  AND ColumnName=?\n                                  AND Units='J' with error code 1, extended code 1, errmsg: near \"WHERE\": syntax error. Detail on error follows.",
          "/home/julien/Software/Others/OpenStudio-resources/measures/openstudio_results/measure.rb:237:in `eval'\n/home/julien/Software/Others/OpenStudio-resources/measures/openstudio_results/resources/os_lib_reporting.rb:3114:in `block (2 levels) in hvac_load_profile'\n/home/julien/Software/Others/OpenStudio-resources/measures/openstudio_results/resources/os_lib_reporting.rb:3110:in `each'\n/home/julien/Software/Others/OpenStudio-resources/measures/openstudio_results/resources/os_lib_reporting.rb:3110:in `block in hvac_load_profile'\n/home/julien/Software/Others/OpenStudio-resources/measures/openstudio_results/resources/os_lib_reporting.rb:3109:in `each'\n/home/julien/Software/Others/OpenStudio-resources/measures/openstudio_results/resources/os_lib_reporting.rb:3109:in `hvac_load_profile'\n(eval):1:in `block in run'\n/home/julien/Software/Others/OpenStudio-resources/measures/openstudio_results/measure.rb:237:in `eval'\n/home/julien/Software/Others/OpenStudio-resources/measures/openstudio_results/measure.rb:237:in `block in run'\n/home/julien/Software/Others/OpenStudio-resources/measures/openstudio_results/measure.rb:233:in `each'\n/home/julien/Software/Others/OpenStudio-resources/measures/openstudio_results/measure.rb:233:in `run'\n:/ruby/2.5.0/gems/openstudio-workflow-2.0.1/lib/openstudio/workflow/util/measure.rb:514:in `apply_measure'\n:/ruby/2.5.0/gems/openstudio-workflow-2.0.1/lib/openstudio/workflow/util/measure.rb:109:in `block in apply_measures'\n:/ruby/2.5.0/gems/openstudio-workflow-2.0.1/lib/openstudio/workflow/util/measure.rb:67:in `each_index'\n:/ruby/2.5.0/gems/openstudio-workflow-2.0.1/lib/openstudio/workflow/util/measure.rb:67:in `apply_measures'\n:/ruby/2.5.0/gems/openstudio-workflow-2.0.1/lib/openstudio/workflow/jobs/run_reporting_measures.rb:105:in `perform'\n:/ruby/2.5.0/gems/openstudio-workflow-2.0.1/lib/openstudio/workflow/run.rb:292:in `step'\n:/ruby/2.5.0/gems/openstudio-workflow-2.0.1/lib/openstudio/workflow/run.rb:234:in `run'\n:/openstudio_cli.rb:963:in `execute'\n:/openstudio_cli.rb:753:in `execute'\n:/openstudio_cli.rb:1747:in `<main>'\neval:175:in `eval'\neval:175:in `require_embedded_absolute'\neval:160:in `block in require_embedded'\neval:154:in `each'\neval:154:in `require_embedded'\neval:113:in `require'\neval:3:in `<main>'"
        ]
      }
    }
  ],
  "weather_file": "../../weatherdata/USA_IL_Chicago-OHare.Intl.AP.725300_TMY3.epw"
}