{
  "completed_status": "Fail",
  "current_step": 0,
  "eplusout_err": [
    "Program Version,EnergyPlus, Version 8.8.0-7c3bbe4830, IDD_Version 8.8.0",
    "   ** Severe  ** IP: IDF line~2997 Object=PLANTEQUIPMENTOPERATIONSCHEMES, name=CHW LOOP OPERATION SCHEMES, Required Field=[Control Scheme 1 Object Type] was blank.",
    "   ** Severe  ** IP: IDF line~2997 Object=PLANTEQUIPMENTOPERATIONSCHEMES, name=CHW LOOP OPERATION SCHEMES, Required Field=[Control Scheme 1 Name] was blank.",
    "   ** Severe  ** IP: IDF line~2997 Object=PLANTEQUIPMENTOPERATIONSCHEMES, name=CHW LOOP OPERATION SCHEMES, Required Field=[Control Scheme 1 Schedule Name] was blank.",
    "   ** Severe  ** IP: IDF line~3490 Object=PLANTEQUIPMENTOPERATIONSCHEMES, name=HW LOOP OPERATION SCHEMES, Required Field=[Control Scheme 1 Object Type] was blank.",
    "   ** Severe  ** IP: IDF line~3490 Object=PLANTEQUIPMENTOPERATIONSCHEMES, name=HW LOOP OPERATION SCHEMES, Required Field=[Control Scheme 1 Name] was blank.",
    "   ** Severe  ** IP: IDF line~3490 Object=PLANTEQUIPMENTOPERATIONSCHEMES, name=HW LOOP OPERATION SCHEMES, Required Field=[Control Scheme 1 Schedule Name] was blank.",
    "   ** Warning ** IP: Note -- Some missing fields have been filled with defaults. See the audit output file for details.",
    "   **   ~~~   ** Possible Invalid Numerics or other problems",
    "   **  Fatal  ** IP: Errors occurred on processing IDF file. Preceding condition(s) cause termination.",
    "   ...Summary of Errors that led to program termination:",
    "   ..... Reference severe error count=6",
    "   ..... Last severe error=IP: IDF line~3490 Object=PLANTEQUIPMENTOPERATIONSCHEMES, name=HW LOOP OPERATION SCHEMES, Required Field=[Control Scheme 1 Schedule Name] was blank.",
    "   ************* Warning:  Node connection errors not checked - most system input has not been read (see previous warning).",
    "   ************* Fatal error -- final processing.  Program exited before simulations began.  See previous error messages.",
    "   ************* EnergyPlus Warmup Error Summary. During Warmup: 0 Warning; 0 Severe Errors.",
    "   ************* EnergyPlus Sizing Error Summary. During Sizing: 0 Warning; 0 Severe Errors.",
    "   ************* EnergyPlus Terminated--Fatal Error Detected. 1 Warning; 6 Severe Errors; "
  ],
  "seed_file": "in.osm",
  "steps": [
    {
      "arguments": {
      },
      "measure_dir_name": "openstudio_results"
    }
  ],
  "weather_file": "../../weatherdata/USA_IL_Chicago-OHare.Intl.AP.725300_TMY3.epw"
}