{
  "completed_status": "Fail",
  "current_step": 0,
  "eplusout_err": [
    "Program Version,EnergyPlus, Version 8.8.0-d5f2442b35, IDD_Version 8.8.0",
    "   ** Severe  ** IP: IDF line~2224 Object=BRANCH, name=AIR LOOP HVAC 1 DUAL DUCT BRANCH 2, Required Field=[Component 1 Object Type] was blank.",
    "   ** Severe  ** IP: IDF line~2224 Object=BRANCH, name=AIR LOOP HVAC 1 DUAL DUCT BRANCH 2, Required Field=[Component 1 Name] was blank.",
    "   ** Severe  ** IP: IDF line~2224 Object=BRANCH, name=AIR LOOP HVAC 1 DUAL DUCT BRANCH 2, Required Field=[Component 1 Inlet Node Name] was blank.",
    "   ** Severe  ** IP: IDF line~2224 Object=BRANCH, name=AIR LOOP HVAC 1 DUAL DUCT BRANCH 2, Required Field=[Component 1 Outlet Node Name] was blank.",
    "   ************* IDF Context for following error/warning message:",
    "   ************* Note -- lines truncated at 300 characters, if necessary...",
    "   *************   2385 CoilSystem:Cooling:DX,",
    "   ************* indicated Name=Coil Cooling DX Two Speed 1 CoilSystem",
    "   ************* Only last 3 lines before error line shown.....",
    "   *************   2386   Coil Cooling DX Two Speed 1 CoilSystem, !- Name",
    "   *************   2387   Always On Discrete,                     !- Availability Schedule Name",
    "   *************   2388   ,                                       !- DX Cooling Coil System Inlet Node Name",
    "   ** Severe  ** IP: IDF line~2388 Error detected in Object=COILSYSTEM:COOLING:DX, name=COIL COOLING DX TWO SPEED 1 COILSYSTEM",
    "   **   ~~~   ** Field [DX Cooling Coil System Inlet Node Name] is required but was blank",
    "   ************* IDF Context for following error/warning message:",
    "   ************* Note -- lines truncated at 300 characters, if necessary...",
    "   *************   2385 CoilSystem:Cooling:DX,",
    "   ************* indicated Name=Coil Cooling DX Two Speed 1 CoilSystem",
    "   ************* Only last 4 lines before error line shown.....",
    "   *************   2386   Coil Cooling DX Two Speed 1 CoilSystem, !- Name",
    "   *************   2387   Always On Discrete,                     !- Availability Schedule Name",
    "   *************   2388   ,                                       !- DX Cooling Coil System Inlet Node Name",
    "   *************   2389   ,                                       !- DX Cooling Coil System Outlet Node Name",
    "   ** Severe  ** IP: IDF line~2389 Error detected in Object=COILSYSTEM:COOLING:DX, name=COIL COOLING DX TWO SPEED 1 COILSYSTEM",
    "   **   ~~~   ** Field [DX Cooling Coil System Outlet Node Name] is required but was blank",
    "   ************* IDF Context for following error/warning message:",
    "   ************* Note -- lines truncated at 300 characters, if necessary...",
    "   *************   2385 CoilSystem:Cooling:DX,",
    "   ************* indicated Name=Coil Cooling DX Two Speed 1 CoilSystem",
    "   ************* Only last 5 lines before error line shown.....",
    "   *************   2386   Coil Cooling DX Two Speed 1 CoilSystem, !- Name",
    "   *************   2387   Always On Discrete,                     !- Availability Schedule Name",
    "   *************   2388   ,                                       !- DX Cooling Coil System Inlet Node Name",
    "   *************   2389   ,                                       !- DX Cooling Coil System Outlet Node Name",
    "   *************   2390   ,                                       !- DX Cooling Coil System Sensor Node Name",
    "   ** Severe  ** IP: IDF line~2390 Error detected in Object=COILSYSTEM:COOLING:DX, name=COIL COOLING DX TWO SPEED 1 COILSYSTEM",
    "   **   ~~~   ** Field [DX Cooling Coil System Sensor Node Name] is required but was blank",
    "   ************* IDF Context for following error/warning message:",
    "   ************* Note -- lines truncated at 300 characters, if necessary...",
    "   *************   2394 Coil:Cooling:DX:TwoSpeed,",
    "   ************* indicated Name=Coil Cooling DX Two Speed 1",
    "   ************* Only last 8 lines before error line shown.....",
    "   *************   2395   Coil Cooling DX Two Speed 1,            !- Name",
    "   *************   2396   Always On Discrete,                     !- Availability Schedule Name",
    "   *************   2397   Autosize,                               !- High Speed Gross Rated Total Cooling Capacity {W}",
    "   *************   2398   Autosize,                               !- High Speed Rated Sensible Heat Ratio",
    "   *************   2399   3,                                      !- High Speed Gross Rated Cooling COP {W/W}",
    "   *************   2400   Autosize,                               !- High Speed Rated Air Flow Rate {m3/s}",
    "   *************   2401   ,                                       !- Unit Internal Static Air Pressure {Pa}",
    "   *************   2402   ,                                       !- Air Inlet Node Name",
    "   ** Severe  ** IP: IDF line~2402 Error detected in Object=COIL:COOLING:DX:TWOSPEED, name=COIL COOLING DX TWO SPEED 1",
    "   **   ~~~   ** Field [Air Inlet Node Name] is required but was blank",
    "   ************* IDF Context for following error/warning message:",
    "   ************* Note -- lines truncated at 300 characters, if necessary...",
    "   *************   2394 Coil:Cooling:DX:TwoSpeed,",
    "   ************* indicated Name=Coil Cooling DX Two Speed 1",
    "   ************* Only last 9 lines before error line shown.....",
    "   *************   2395   Coil Cooling DX Two Speed 1,            !- Name",
    "   *************   2396   Always On Discrete,                     !- Availability Schedule Name",
    "   *************   2397   Autosize,                               !- High Speed Gross Rated Total Cooling Capacity {W}",
    "   *************   2398   Autosize,                               !- High Speed Rated Sensible Heat Ratio",
    "   *************   2399   3,                                      !- High Speed Gross Rated Cooling COP {W/W}",
    "   *************   2400   Autosize,                               !- High Speed Rated Air Flow Rate {m3/s}",
    "   *************   2401   ,                                       !- Unit Internal Static Air Pressure {Pa}",
    "   *************   2402   ,                                       !- Air Inlet Node Name",
    "   *************   2403   ,                                       !- Air Outlet Node Name",
    "   ** Severe  ** IP: IDF line~2403 Error detected in Object=COIL:COOLING:DX:TWOSPEED, name=COIL COOLING DX TWO SPEED 1",
    "   **   ~~~   ** Field [Air Outlet Node Name] is required but was blank",
    "   ** Warning ** IP: Note -- Some missing fields have been filled with defaults. See the audit output file for details.",
    "   ** Severe  ** IP: Blank \"required\" fields found in input",
    "   **   ~~~   ** Possible Invalid Numerics or other problems",
    "   **  Fatal  ** IP: Errors occurred on processing IDF file. Preceding condition(s) cause termination.",
    "   ...Summary of Errors that led to program termination:",
    "   ..... Reference severe error count=10",
    "   ..... Last severe error=IP: Blank \"required\" fields found in input",
    "   ************* Warning:  Node connection errors not checked - most system input has not been read (see previous warning).",
    "   ************* Fatal error -- final processing.  Program exited before simulations began.  See previous error messages.",
    "   ************* EnergyPlus Warmup Error Summary. During Warmup: 0 Warning; 0 Severe Errors.",
    "   ************* EnergyPlus Sizing Error Summary. During Sizing: 0 Warning; 0 Severe Errors.",
    "   ************* EnergyPlus Terminated--Fatal Error Detected. 1 Warning; 10 Severe Errors; "
  ],
  "seed_file": "in.osm",
  "steps": [
    {
      "arguments": {
      },
      "measure_dir_name": "openstudio_results"
    }
  ],
  "weather_file": "../../weatherdata/USA_IL_Chicago-OHare.Intl.AP.725300_TMY3.epw"
}