{
   "completed_at" : "20180205T201302Z",
   "completed_status" : "Fail",
   "current_step" : 0,
   "eplusout_err" : "Program Version,EnergyPlus, Version 8.8.0-d5f2442b35, YMD=2018.02.05 20:13,IDD_Version 8.8.0\n   ** Severe  ** IP: IDF line~2224 Object=BRANCH, name=AIR LOOP HVAC 1 DUAL DUCT BRANCH 2, Required Field=[Component 1 Object Type] was blank.\n   ** Severe  ** IP: IDF line~2224 Object=BRANCH, name=AIR LOOP HVAC 1 DUAL DUCT BRANCH 2, Required Field=[Component 1 Name] was blank.\n   ** Severe  ** IP: IDF line~2224 Object=BRANCH, name=AIR LOOP HVAC 1 DUAL DUCT BRANCH 2, Required Field=[Component 1 Inlet Node Name] was blank.\n   ** Severe  ** IP: IDF line~2224 Object=BRANCH, name=AIR LOOP HVAC 1 DUAL DUCT BRANCH 2, Required Field=[Component 1 Outlet Node Name] was blank.\n   ************* IDF Context for following error/warning message:\n   ************* Note -- lines truncated at 300 characters, if necessary...\n   *************   2385 CoilSystem:Cooling:DX,\n   ************* indicated Name=Coil Cooling DX Two Speed 1 CoilSystem\n   ************* Only last 3 lines before error line shown.....\n   *************   2386   Coil Cooling DX Two Speed 1 CoilSystem, !- Name\n   *************   2387   Always On Discrete,                     !- Availability Schedule Name\n   *************   2388   ,                                       !- DX Cooling Coil System Inlet Node Name\n   ** Severe  ** IP: IDF line~2388 Error detected in Object=COILSYSTEM:COOLING:DX, name=COIL COOLING DX TWO SPEED 1 COILSYSTEM\n   **   ~~~   ** Field [DX Cooling Coil System Inlet Node Name] is required but was blank\n   ************* IDF Context for following error/warning message:\n   ************* Note -- lines truncated at 300 characters, if necessary...\n   *************   2385 CoilSystem:Cooling:DX,\n   ************* indicated Name=Coil Cooling DX Two Speed 1 CoilSystem\n   ************* Only last 4 lines before error line shown.....\n   *************   2386   Coil Cooling DX Two Speed 1 CoilSystem, !- Name\n   *************   2387   Always On Discrete,                     !- Availability Schedule Name\n   *************   2388   ,                                       !- DX Cooling Coil System Inlet Node Name\n   *************   2389   ,                                       !- DX Cooling Coil System Outlet Node Name\n   ** Severe  ** IP: IDF line~2389 Error detected in Object=COILSYSTEM:COOLING:DX, name=COIL COOLING DX TWO SPEED 1 COILSYSTEM\n   **   ~~~   ** Field [DX Cooling Coil System Outlet Node Name] is required but was blank\n   ************* IDF Context for following error/warning message:\n   ************* Note -- lines truncated at 300 characters, if necessary...\n   *************   2385 CoilSystem:Cooling:DX,\n   ************* indicated Name=Coil Cooling DX Two Speed 1 CoilSystem\n   ************* Only last 5 lines before error line shown.....\n   *************   2386   Coil Cooling DX Two Speed 1 CoilSystem, !- Name\n   *************   2387   Always On Discrete,                     !- Availability Schedule Name\n   *************   2388   ,                                       !- DX Cooling Coil System Inlet Node Name\n   *************   2389   ,                                       !- DX Cooling Coil System Outlet Node Name\n   *************   2390   ,                                       !- DX Cooling Coil System Sensor Node Name\n   ** Severe  ** IP: IDF line~2390 Error detected in Object=COILSYSTEM:COOLING:DX, name=COIL COOLING DX TWO SPEED 1 COILSYSTEM\n   **   ~~~   ** Field [DX Cooling Coil System Sensor Node Name] is required but was blank\n   ************* IDF Context for following error/warning message:\n   ************* Note -- lines truncated at 300 characters, if necessary...\n   *************   2394 Coil:Cooling:DX:TwoSpeed,\n   ************* indicated Name=Coil Cooling DX Two Speed 1\n   ************* Only last 8 lines before error line shown.....\n   *************   2395   Coil Cooling DX Two Speed 1,            !- Name\n   *************   2396   Always On Discrete,                     !- Availability Schedule Name\n   *************   2397   Autosize,                               !- High Speed Gross Rated Total Cooling Capacity {W}\n   *************   2398   Autosize,                               !- High Speed Rated Sensible Heat Ratio\n   *************   2399   3,                                      !- High Speed Gross Rated Cooling COP {W/W}\n   *************   2400   Autosize,                               !- High Speed Rated Air Flow Rate {m3/s}\n   *************   2401   ,                                       !- Unit Internal Static Air Pressure {Pa}\n   *************   2402   ,                                       !- Air Inlet Node Name\n   ** Severe  ** IP: IDF line~2402 Error detected in Object=COIL:COOLING:DX:TWOSPEED, name=COIL COOLING DX TWO SPEED 1\n   **   ~~~   ** Field [Air Inlet Node Name] is required but was blank\n   ************* IDF Context for following error/warning message:\n   ************* Note -- lines truncated at 300 characters, if necessary...\n   *************   2394 Coil:Cooling:DX:TwoSpeed,\n   ************* indicated Name=Coil Cooling DX Two Speed 1\n   ************* Only last 9 lines before error line shown.....\n   *************   2395   Coil Cooling DX Two Speed 1,            !- Name\n   *************   2396   Always On Discrete,                     !- Availability Schedule Name\n   *************   2397   Autosize,                               !- High Speed Gross Rated Total Cooling Capacity {W}\n   *************   2398   Autosize,                               !- High Speed Rated Sensible Heat Ratio\n   *************   2399   3,                                      !- High Speed Gross Rated Cooling COP {W/W}\n   *************   2400   Autosize,                               !- High Speed Rated Air Flow Rate {m3/s}\n   *************   2401   ,                                       !- Unit Internal Static Air Pressure {Pa}\n   *************   2402   ,                                       !- Air Inlet Node Name\n   *************   2403   ,                                       !- Air Outlet Node Name\n   ** Severe  ** IP: IDF line~2403 Error detected in Object=COIL:COOLING:DX:TWOSPEED, name=COIL COOLING DX TWO SPEED 1\n   **   ~~~   ** Field [Air Outlet Node Name] is required but was blank\n   ** Warning ** IP: Note -- Some missing fields have been filled with defaults. See the audit output file for details.\n   ** Severe  ** IP: Blank \"required\" fields found in input\n   **   ~~~   ** Possible Invalid Numerics or other problems\n   **  Fatal  ** IP: Errors occurred on processing IDF file. Preceding condition(s) cause termination.\n   ...Summary of Errors that led to program termination:\n   ..... Reference severe error count=10\n   ..... Last severe error=IP: Blank \"required\" fields found in input\n   ************* Warning:  Node connection errors not checked - most system input has not been read (see previous warning).\n   ************* Fatal error -- final processing.  Program exited before simulations began.  See previous error messages.\n   ************* EnergyPlus Warmup Error Summary. During Warmup: 0 Warning; 0 Severe Errors.\n   ************* EnergyPlus Sizing Error Summary. During Sizing: 0 Warning; 0 Severe Errors.\n   ************* EnergyPlus Terminated--Fatal Error Detected. 1 Warning; 10 Severe Errors; Elapsed Time=00hr 00min  0.26sec\n",
   "hash" : "74A83534",
   "seed_file" : "in.osm",
   "started_at" : "20180205T201251Z",
   "steps" : [
      {
         "arguments" : {},
         "measure_dir_name" : "openstudio_results"
      }
   ],
   "updated_at" : "20180205T201302Z",
   "weather_file" : "../../weatherdata/USA_IL_Chicago-OHare.Intl.AP.725300_TMY3.epw"
}
