{
  "completed_status": "Fail",
  "current_step": 0,
  "eplusout_err": [
    "Program Version,EnergyPlus, Version 9.4.0-998c4b761e, ",
    "   ************* Beginning Zone Sizing Calculations",
    "   ** Warning ** Site:GroundTemperature:BuildingSurface: Some values fall outside the range of 15-25C.",
    "   **   ~~~   ** These values may be inappropriate.  Please consult the Input Output Reference for more details.",
    "   ** Warning ** Weather file location will be used rather than entered (IDF) Location object.",
    "   **   ~~~   ** ..Location object=BALTIMORE BLT WASHNGTN INTL",
    "   **   ~~~   ** ..Weather File Location=Chicago Ohare Intl Ap IL USA TMY3 WMO#=725300",
    "   **   ~~~   ** ..due to location differences, Latitude difference=[2.81] degrees, Longitude difference=[11.24] degrees.",
    "   **   ~~~   ** ..Time Zone difference=[1.0] hour(s), Elevation difference=[346.67] percent, [156.00] meters.",
    "   ** Warning ** SetUpDesignDay: Entered DesignDay Barometric Pressure=83011 differs by more than 10% from Standard Barometric Pressure=98934.",
    "   **   ~~~   ** ...occurs in DesignDay=DENVER INTL AP ANN CLG 1% CONDNS DB=>MWB, Standard Pressure (based on elevation) will be used.",
    "   ** Warning ** ProcessScheduleInput: Schedule:Constant=\"SUPPLYFANOPERATION 1\", Blank Schedule Type Limits Name input -- will not be validated.",
    "   ** Warning ** ProcessScheduleInput: Schedule:Constant=\"SUPPLYFANOPERATION\", Blank Schedule Type Limits Name input -- will not be validated.",
    "   ** Warning ** ProcessScheduleInput: Schedule:Constant=\"ALWAYS OFF DISCRETE\", Blank Schedule Type Limits Name input -- will not be validated.",
    "   ** Warning ** ProcessScheduleInput: Schedule:Constant=\"ALWAYS ON CONTINUOUS\", Blank Schedule Type Limits Name input -- will not be validated.",
    "   ** Warning ** SetUpDesignDay: Entered DesignDay Barometric Pressure=83011 differs by more than 10% from Standard Barometric Pressure=98934.",
    "   **   ~~~   ** ...occurs in DesignDay=DENVER INTL AP ANN CLG 1% CONDNS WB=>MDB, Standard Pressure (based on elevation) will be used.",
    "   ** Warning ** SetUpDesignDay: Entered DesignDay Barometric Pressure=83011 differs by more than 10% from Standard Barometric Pressure=98934.",
    "   **   ~~~   ** ...occurs in DesignDay=DENVER INTL AP ANN HTG 99% CONDNS DB, Standard Pressure (based on elevation) will be used.",
    "   ** Warning ** Output:Meter: invalid Key Name=\"NATURALGAS:FACILITY\" - not found.",
    "   ** Warning ** Output:Meter: invalid Key Name=\"DISTRICTCOOLING:FACILITY\" - not found.",
    "   ** Warning ** Output:Meter: invalid Key Name=\"DISTRICTHEATING:FACILITY\" - not found.",
    "   ** Warning ** Output:Meter:MeterFileOnly: invalid Key Name=\"NATURALGAS:FACILITY\" - not found.",
    "   ** Warning ** Output:Meter:MeterFileOnly requested for \"Electricity:Facility\" (TimeStep), already on \"Output:Meter\". Will report to both eplusout.eso and eplusout.mtr",
    "   ************* Testing Individual Branch Integrity",
    "   ************* All Branches passed integrity testing",
    "   ************* Testing Individual Supply Air Path Integrity",
    "   ************* All Supply Air Paths passed integrity testing",
    "   ************* Testing Individual Return Air Path Integrity",
    "   ************* All Return Air Paths passed integrity testing",
    "   ************* No node connection errors were found.",
    "   ** Severe  ** Invalid Actuated Component Control Type =ELECTRIC POWER LEVEL",
    "   **   ~~~   ** Entered in EnergyManagementSystem:Actuator=RESIDENTIAL_MINI_SPLIT_PAN_HEATER_ACTUATOR",
    "   **   ~~~   ** Control Type not found",
    "   **   ~~~   ** Use Output:EnergyManagementSystem object to create .edd file for valid component control types.",
    "   ** Severe  ** Invalid Actuated Component Control Type =ELECTRIC POWER LEVEL",
    "   **   ~~~   ** Entered in EnergyManagementSystem:Actuator=RESIDENTIAL_MINI_SPLIT_UNIT_2_PAN_HEATER_ACTUATOR",
    "   **   ~~~   ** Control Type not found",
    "   **   ~~~   ** Use Output:EnergyManagementSystem object to create .edd file for valid component control types.",
    "   **  Fatal  ** Errors found in processing Energy Management System input. Preceding condition causes termination.",
    "   ...Summary of Errors that led to program termination:",
    "   ..... Reference severe error count=2",
    "   ..... Last severe error=Invalid Actuated Component Control Type =ELECTRIC POWER LEVEL",
    "   ************* Warning:  Node connection errors not checked - most system input has not been read (see previous warning).",
    "   ************* Fatal error -- final processing.  Program exited before simulations began.  See previous error messages.",
    "   ************* EnergyPlus Warmup Error Summary. During Warmup: 0 Warning; 0 Severe Errors.",
    "   ************* EnergyPlus Sizing Error Summary. During Sizing: 9 Warning; 0 Severe Errors.",
    "   ************* EnergyPlus Terminated--Fatal Error Detected. 14 Warning; 2 Severe Errors; "
  ],
  "file_paths": [
    "/home/julien/Software/Others/OpenStudio-resources/testruns/ems.osm/generated_files",
    "./files",
    "./weather",
    "../../files",
    "../../weather",
    "./"
  ],
  "seed_file": "in.osm",
  "steps": [
    {
      "arguments": {
      },
      "measure_dir_name": "openstudio_results"
    }
  ],
  "weather_file": "../../weatherdata/USA_IL_Chicago-OHare.Intl.AP.725300_TMY3.epw"
}