{
  "completed_status": "Fail",
  "current_step": 0,
  "eplusout_err": [
    "Program Version,EnergyPlus, Version 8.9.0-497bb3e71c, ",
    "   ** Warning ** Site:GroundTemperature:BuildingSurface: Some values fall outside the range of 15-25C.",
    "   **   ~~~   ** These values may be inappropriate.  Please consult the Input Output Reference for more details.",
    "   ** Warning ** Weather file location will be used rather than entered (IDF) Location object.",
    "   **   ~~~   ** ..Location object=DENVER INTL AP",
    "   **   ~~~   ** ..Weather File Location=Chicago Ohare Intl Ap IL USA TMY3 WMO#=725300",
    "   **   ~~~   ** ..due to location differences, Latitude difference=[2.15] degrees, Longitude difference=[16.73] degrees.",
    "   **   ~~~   ** ..Time Zone difference=[1.0] hour(s), Elevation difference=[87.82] percent, [1449.00] meters.",
    "   ** Warning ** ProcessScheduleInput: Schedule:Day:Interval=\"RES INFIL_U 1 BATH EXHAUST SCHEDULE ALLDAY1\", Blank Schedule Type Limits Name input -- will not be validated.",
    "   ** Warning ** ProcessScheduleInput: Schedule:Day:Interval=\"RES INFIL_U 1 BATH EXHAUST SCHEDULE ALLDAY10\", Blank Schedule Type Limits Name input -- will not be validated.",
    "   ** Warning ** ProcessScheduleInput: Schedule:Day:Interval=\"RES INFIL_U 1 BATH EXHAUST SCHEDULE ALLDAY11\", Blank Schedule Type Limits Name input -- will not be validated.",
    "   ** Warning ** ProcessScheduleInput: Schedule:Day:Interval=\"RES INFIL_U 1 BATH EXHAUST SCHEDULE ALLDAY12\", Blank Schedule Type Limits Name input -- will not be validated.",
    "   ** Warning ** ProcessScheduleInput: Schedule:Day:Interval=\"RES INFIL_U 1 BATH EXHAUST SCHEDULE ALLDAY2\", Blank Schedule Type Limits Name input -- will not be validated.",
    "   ** Warning ** ProcessScheduleInput: Schedule:Day:Interval=\"RES INFIL_U 1 BATH EXHAUST SCHEDULE ALLDAY3\", Blank Schedule Type Limits Name input -- will not be validated.",
    "   ** Warning ** ProcessScheduleInput: Schedule:Day:Interval=\"RES INFIL_U 1 BATH EXHAUST SCHEDULE ALLDAY4\", Blank Schedule Type Limits Name input -- will not be validated.",
    "   ** Warning ** ProcessScheduleInput: Schedule:Day:Interval=\"RES INFIL_U 1 BATH EXHAUST SCHEDULE ALLDAY5\", Blank Schedule Type Limits Name input -- will not be validated.",
    "   ** Warning ** ProcessScheduleInput: Schedule:Day:Interval=\"RES INFIL_U 1 BATH EXHAUST SCHEDULE ALLDAY6\", Blank Schedule Type Limits Name input -- will not be validated.",
    "   ** Warning ** ProcessScheduleInput: Schedule:Day:Interval=\"RES INFIL_U 1 BATH EXHAUST SCHEDULE ALLDAY7\", Blank Schedule Type Limits Name input -- will not be validated.",
    "   ** Warning ** ProcessScheduleInput: Schedule:Day:Interval=\"RES INFIL_U 1 BATH EXHAUST SCHEDULE ALLDAY8\", Blank Schedule Type Limits Name input -- will not be validated.",
    "   ** Warning ** ProcessScheduleInput: Schedule:Day:Interval=\"RES INFIL_U 1 BATH EXHAUST SCHEDULE ALLDAY9\", Blank Schedule Type Limits Name input -- will not be validated.",
    "   ** Warning ** ProcessScheduleInput: Schedule:Day:Interval=\"RES INFIL_U 1 CLOTHES DRYER EXHAUST SCHEDULE ALLDAY1\", Blank Schedule Type Limits Name input -- will not be validated.",
    "   ** Warning ** ProcessScheduleInput: Schedule:Day:Interval=\"RES INFIL_U 1 CLOTHES DRYER EXHAUST SCHEDULE ALLDAY10\", Blank Schedule Type Limits Name input -- will not be validated.",
    "   ** Warning ** ProcessScheduleInput: Schedule:Day:Interval=\"RES INFIL_U 1 CLOTHES DRYER EXHAUST SCHEDULE ALLDAY11\", Blank Schedule Type Limits Name input -- will not be validated.",
    "   ** Warning ** ProcessScheduleInput: Schedule:Day:Interval=\"RES INFIL_U 1 CLOTHES DRYER EXHAUST SCHEDULE ALLDAY12\", Blank Schedule Type Limits Name input -- will not be validated.",
    "   ** Warning ** ProcessScheduleInput: Schedule:Day:Interval=\"RES INFIL_U 1 CLOTHES DRYER EXHAUST SCHEDULE ALLDAY2\", Blank Schedule Type Limits Name input -- will not be validated.",
    "   ** Warning ** ProcessScheduleInput: Schedule:Day:Interval=\"RES INFIL_U 1 CLOTHES DRYER EXHAUST SCHEDULE ALLDAY3\", Blank Schedule Type Limits Name input -- will not be validated.",
    "   ** Warning ** ProcessScheduleInput: Schedule:Day:Interval=\"RES INFIL_U 1 CLOTHES DRYER EXHAUST SCHEDULE ALLDAY4\", Blank Schedule Type Limits Name input -- will not be validated.",
    "   ** Warning ** ProcessScheduleInput: Schedule:Day:Interval=\"RES INFIL_U 1 CLOTHES DRYER EXHAUST SCHEDULE ALLDAY5\", Blank Schedule Type Limits Name input -- will not be validated.",
    "   ** Warning ** ProcessScheduleInput: Schedule:Day:Interval=\"RES INFIL_U 1 CLOTHES DRYER EXHAUST SCHEDULE ALLDAY6\", Blank Schedule Type Limits Name input -- will not be validated.",
    "   ** Warning ** ProcessScheduleInput: Schedule:Day:Interval=\"RES INFIL_U 1 CLOTHES DRYER EXHAUST SCHEDULE ALLDAY7\", Blank Schedule Type Limits Name input -- will not be validated.",
    "   ** Warning ** ProcessScheduleInput: Schedule:Day:Interval=\"RES INFIL_U 1 CLOTHES DRYER EXHAUST SCHEDULE ALLDAY8\", Blank Schedule Type Limits Name input -- will not be validated.",
    "   ** Warning ** ProcessScheduleInput: Schedule:Day:Interval=\"RES INFIL_U 1 CLOTHES DRYER EXHAUST SCHEDULE ALLDAY9\", Blank Schedule Type Limits Name input -- will not be validated.",
    "   ** Warning ** ProcessScheduleInput: Schedule:Day:Interval=\"RES INFIL_U 1 RANGE HOOD SCHEDULE ALLDAY1\", Blank Schedule Type Limits Name input -- will not be validated.",
    "   ** Warning ** ProcessScheduleInput: Schedule:Day:Interval=\"RES INFIL_U 1 RANGE HOOD SCHEDULE ALLDAY10\", Blank Schedule Type Limits Name input -- will not be validated.",
    "   ** Warning ** ProcessScheduleInput: Schedule:Day:Interval=\"RES INFIL_U 1 RANGE HOOD SCHEDULE ALLDAY11\", Blank Schedule Type Limits Name input -- will not be validated.",
    "   ** Warning ** ProcessScheduleInput: Schedule:Day:Interval=\"RES INFIL_U 1 RANGE HOOD SCHEDULE ALLDAY12\", Blank Schedule Type Limits Name input -- will not be validated.",
    "   ** Warning ** ProcessScheduleInput: Schedule:Day:Interval=\"RES INFIL_U 1 RANGE HOOD SCHEDULE ALLDAY2\", Blank Schedule Type Limits Name input -- will not be validated.",
    "   ** Warning ** ProcessScheduleInput: Schedule:Day:Interval=\"RES INFIL_U 1 RANGE HOOD SCHEDULE ALLDAY3\", Blank Schedule Type Limits Name input -- will not be validated.",
    "   ** Warning ** ProcessScheduleInput: Schedule:Day:Interval=\"RES INFIL_U 1 RANGE HOOD SCHEDULE ALLDAY4\", Blank Schedule Type Limits Name input -- will not be validated.",
    "   ** Warning ** ProcessScheduleInput: Schedule:Day:Interval=\"RES INFIL_U 1 RANGE HOOD SCHEDULE ALLDAY5\", Blank Schedule Type Limits Name input -- will not be validated.",
    "   ** Warning ** ProcessScheduleInput: Schedule:Day:Interval=\"RES INFIL_U 1 RANGE HOOD SCHEDULE ALLDAY6\", Blank Schedule Type Limits Name input -- will not be validated.",
    "   ** Warning ** ProcessScheduleInput: Schedule:Day:Interval=\"RES INFIL_U 1 RANGE HOOD SCHEDULE ALLDAY7\", Blank Schedule Type Limits Name input -- will not be validated.",
    "   ** Warning ** ProcessScheduleInput: Schedule:Day:Interval=\"RES INFIL_U 1 RANGE HOOD SCHEDULE ALLDAY8\", Blank Schedule Type Limits Name input -- will not be validated.",
    "   ** Warning ** ProcessScheduleInput: Schedule:Day:Interval=\"RES INFIL_U 1 RANGE HOOD SCHEDULE ALLDAY9\", Blank Schedule Type Limits Name input -- will not be validated.",
    "   ** Warning ** ProcessScheduleInput: Schedule:Day:Interval=\"RES MV_U 1 ENERGY SCHEDULE ALLDAY1\", Blank Schedule Type Limits Name input -- will not be validated.",
    "   ** Warning ** ProcessScheduleInput: Schedule:Day:Interval=\"RES MV_U 1 ENERGY SCHEDULE ALLDAY10\", Blank Schedule Type Limits Name input -- will not be validated.",
    "   ** Warning ** ProcessScheduleInput: Schedule:Day:Interval=\"RES MV_U 1 ENERGY SCHEDULE ALLDAY11\", Blank Schedule Type Limits Name input -- will not be validated.",
    "   ** Warning ** ProcessScheduleInput: Schedule:Day:Interval=\"RES MV_U 1 ENERGY SCHEDULE ALLDAY12\", Blank Schedule Type Limits Name input -- will not be validated.",
    "   ** Warning ** ProcessScheduleInput: Schedule:Day:Interval=\"RES MV_U 1 ENERGY SCHEDULE ALLDAY2\", Blank Schedule Type Limits Name input -- will not be validated.",
    "   ** Warning ** ProcessScheduleInput: Schedule:Day:Interval=\"RES MV_U 1 ENERGY SCHEDULE ALLDAY3\", Blank Schedule Type Limits Name input -- will not be validated.",
    "   ** Warning ** ProcessScheduleInput: Schedule:Day:Interval=\"RES MV_U 1 ENERGY SCHEDULE ALLDAY4\", Blank Schedule Type Limits Name input -- will not be validated.",
    "   ** Warning ** ProcessScheduleInput: Schedule:Day:Interval=\"RES MV_U 1 ENERGY SCHEDULE ALLDAY5\", Blank Schedule Type Limits Name input -- will not be validated.",
    "   ** Warning ** ProcessScheduleInput: Schedule:Day:Interval=\"RES MV_U 1 ENERGY SCHEDULE ALLDAY6\", Blank Schedule Type Limits Name input -- will not be validated.",
    "   ** Warning ** ProcessScheduleInput: Schedule:Day:Interval=\"RES MV_U 1 ENERGY SCHEDULE ALLDAY7\", Blank Schedule Type Limits Name input -- will not be validated.",
    "   ** Warning ** ProcessScheduleInput: Schedule:Day:Interval=\"RES MV_U 1 ENERGY SCHEDULE ALLDAY8\", Blank Schedule Type Limits Name input -- will not be validated.",
    "   ** Warning ** ProcessScheduleInput: Schedule:Day:Interval=\"RES MV_U 1 ENERGY SCHEDULE ALLDAY9\", Blank Schedule Type Limits Name input -- will not be validated.",
    "   ** Warning ** ProcessScheduleInput: Schedule:Day:Interval=\"RES MV_U 1 SCHEDULE ALLDAY1\", Blank Schedule Type Limits Name input -- will not be validated.",
    "   ** Warning ** ProcessScheduleInput: Schedule:Day:Interval=\"RES MV_U 1 SCHEDULE ALLDAY10\", Blank Schedule Type Limits Name input -- will not be validated.",
    "   ** Warning ** ProcessScheduleInput: Schedule:Day:Interval=\"RES MV_U 1 SCHEDULE ALLDAY11\", Blank Schedule Type Limits Name input -- will not be validated.",
    "   ** Warning ** ProcessScheduleInput: Schedule:Day:Interval=\"RES MV_U 1 SCHEDULE ALLDAY12\", Blank Schedule Type Limits Name input -- will not be validated.",
    "   ** Warning ** ProcessScheduleInput: Schedule:Day:Interval=\"RES MV_U 1 SCHEDULE ALLDAY2\", Blank Schedule Type Limits Name input -- will not be validated.",
    "   ** Warning ** ProcessScheduleInput: Schedule:Day:Interval=\"RES MV_U 1 SCHEDULE ALLDAY3\", Blank Schedule Type Limits Name input -- will not be validated.",
    "   ** Warning ** ProcessScheduleInput: Schedule:Day:Interval=\"RES MV_U 1 SCHEDULE ALLDAY4\", Blank Schedule Type Limits Name input -- will not be validated.",
    "   ** Warning ** ProcessScheduleInput: Schedule:Day:Interval=\"RES MV_U 1 SCHEDULE ALLDAY5\", Blank Schedule Type Limits Name input -- will not be validated.",
    "   ** Warning ** ProcessScheduleInput: Schedule:Day:Interval=\"RES MV_U 1 SCHEDULE ALLDAY6\", Blank Schedule Type Limits Name input -- will not be validated.",
    "   ** Warning ** ProcessScheduleInput: Schedule:Day:Interval=\"RES MV_U 1 SCHEDULE ALLDAY7\", Blank Schedule Type Limits Name input -- will not be validated.",
    "   ** Warning ** ProcessScheduleInput: Schedule:Day:Interval=\"RES MV_U 1 SCHEDULE ALLDAY8\", Blank Schedule Type Limits Name input -- will not be validated.",
    "   ** Warning ** ProcessScheduleInput: Schedule:Day:Interval=\"RES MV_U 1 SCHEDULE ALLDAY9\", Blank Schedule Type Limits Name input -- will not be validated.",
    "   ** Warning ** ProcessScheduleInput: Schedule:Day:Interval=\"RES NV_U 1 AVAILABILITY SCHEDULE ALLDAY1 ON\", Blank Schedule Type Limits Name input -- will not be validated.",
    "   ** Warning ** ProcessScheduleInput: Schedule:Day:Interval=\"RES NV_U 1 AVAILABILITY SCHEDULE ALLDAY1 ON 1\", Blank Schedule Type Limits Name input -- will not be validated.",
    "   ** Warning ** ProcessScheduleInput: Schedule:Day:Interval=\"RES NV_U 1 AVAILABILITY SCHEDULE ALLDAY1 ON 10\", Blank Schedule Type Limits Name input -- will not be validated.",
    "   ** Warning ** ProcessScheduleInput: Schedule:Day:Interval=\"RES NV_U 1 AVAILABILITY SCHEDULE ALLDAY1 ON 11\", Blank Schedule Type Limits Name input -- will not be validated.",
    "   ** Warning ** ProcessScheduleInput: Schedule:Day:Interval=\"RES NV_U 1 AVAILABILITY SCHEDULE ALLDAY1 ON 2\", Blank Schedule Type Limits Name input -- will not be validated.",
    "   ** Warning ** ProcessScheduleInput: Schedule:Day:Interval=\"RES NV_U 1 AVAILABILITY SCHEDULE ALLDAY1 ON 3\", Blank Schedule Type Limits Name input -- will not be validated.",
    "   ** Warning ** ProcessScheduleInput: Schedule:Day:Interval=\"RES NV_U 1 AVAILABILITY SCHEDULE ALLDAY1 ON 4\", Blank Schedule Type Limits Name input -- will not be validated.",
    "   ** Warning ** ProcessScheduleInput: Schedule:Day:Interval=\"RES NV_U 1 AVAILABILITY SCHEDULE ALLDAY1 ON 5\", Blank Schedule Type Limits Name input -- will not be validated.",
    "   ** Warning ** ProcessScheduleInput: Schedule:Day:Interval=\"RES NV_U 1 AVAILABILITY SCHEDULE ALLDAY1 ON 6\", Blank Schedule Type Limits Name input -- will not be validated.",
    "   ** Warning ** ProcessScheduleInput: Schedule:Day:Interval=\"RES NV_U 1 AVAILABILITY SCHEDULE ALLDAY1 ON 7\", Blank Schedule Type Limits Name input -- will not be validated.",
    "   ** Warning ** ProcessScheduleInput: Schedule:Day:Interval=\"RES NV_U 1 AVAILABILITY SCHEDULE ALLDAY1 ON 8\", Blank Schedule Type Limits Name input -- will not be validated.",
    "   ** Warning ** ProcessScheduleInput: Schedule:Day:Interval=\"RES NV_U 1 AVAILABILITY SCHEDULE ALLDAY1 ON 9\", Blank Schedule Type Limits Name input -- will not be validated.",
    "   ** Warning ** ProcessScheduleInput: Schedule:Day:Interval=\"RES NV_U 1 TEMP SCHEDULE ALLDAY1\", Blank Schedule Type Limits Name input -- will not be validated.",
    "   ** Warning ** ProcessScheduleInput: Schedule:Day:Interval=\"RES NV_U 1 TEMP SCHEDULE ALLDAY10\", Blank Schedule Type Limits Name input -- will not be validated.",
    "   ** Warning ** ProcessScheduleInput: Schedule:Day:Interval=\"RES NV_U 1 TEMP SCHEDULE ALLDAY11\", Blank Schedule Type Limits Name input -- will not be validated.",
    "   ** Warning ** ProcessScheduleInput: Schedule:Day:Interval=\"RES NV_U 1 TEMP SCHEDULE ALLDAY12\", Blank Schedule Type Limits Name input -- will not be validated.",
    "   ** Warning ** ProcessScheduleInput: Schedule:Day:Interval=\"RES NV_U 1 TEMP SCHEDULE ALLDAY2\", Blank Schedule Type Limits Name input -- will not be validated.",
    "   ** Warning ** ProcessScheduleInput: Schedule:Day:Interval=\"RES NV_U 1 TEMP SCHEDULE ALLDAY3\", Blank Schedule Type Limits Name input -- will not be validated.",
    "   ** Warning ** ProcessScheduleInput: Schedule:Day:Interval=\"RES NV_U 1 TEMP SCHEDULE ALLDAY4\", Blank Schedule Type Limits Name input -- will not be validated.",
    "   ** Warning ** ProcessScheduleInput: Schedule:Day:Interval=\"RES NV_U 1 TEMP SCHEDULE ALLDAY5\", Blank Schedule Type Limits Name input -- will not be validated.",
    "   ** Warning ** ProcessScheduleInput: Schedule:Day:Interval=\"RES NV_U 1 TEMP SCHEDULE ALLDAY6\", Blank Schedule Type Limits Name input -- will not be validated.",
    "   ** Warning ** ProcessScheduleInput: Schedule:Day:Interval=\"RES NV_U 1 TEMP SCHEDULE ALLDAY7\", Blank Schedule Type Limits Name input -- will not be validated.",
    "   ** Warning ** ProcessScheduleInput: Schedule:Day:Interval=\"RES NV_U 1 TEMP SCHEDULE ALLDAY8\", Blank Schedule Type Limits Name input -- will not be validated.",
    "   ** Warning ** ProcessScheduleInput: Schedule:Day:Interval=\"RES NV_U 1 TEMP SCHEDULE ALLDAY9\", Blank Schedule Type Limits Name input -- will not be validated.",
    "   ** Warning ** ProcessScheduleInput: Schedule:Day:Interval=\"RESIDENTIAL WINDOW SHADING SCHEDULE ALLDAY1\", Blank Schedule Type Limits Name input -- will not be validated.",
    "   ** Warning ** ProcessScheduleInput: Schedule:Day:Interval=\"RESIDENTIAL WINDOW SHADING SCHEDULE ALLDAY10\", Blank Schedule Type Limits Name input -- will not be validated.",
    "   ** Warning ** ProcessScheduleInput: Schedule:Day:Interval=\"RESIDENTIAL WINDOW SHADING SCHEDULE ALLDAY11\", Blank Schedule Type Limits Name input -- will not be validated.",
    "   ** Warning ** ProcessScheduleInput: Schedule:Day:Interval=\"RESIDENTIAL WINDOW SHADING SCHEDULE ALLDAY12\", Blank Schedule Type Limits Name input -- will not be validated.",
    "   ** Warning ** ProcessScheduleInput: Schedule:Day:Interval=\"RESIDENTIAL WINDOW SHADING SCHEDULE ALLDAY2\", Blank Schedule Type Limits Name input -- will not be validated.",
    "   ** Warning ** ProcessScheduleInput: Schedule:Day:Interval=\"RESIDENTIAL WINDOW SHADING SCHEDULE ALLDAY3\", Blank Schedule Type Limits Name input -- will not be validated.",
    "   ** Warning ** ProcessScheduleInput: Schedule:Day:Interval=\"RESIDENTIAL WINDOW SHADING SCHEDULE ALLDAY4\", Blank Schedule Type Limits Name input -- will not be validated.",
    "   ** Warning ** ProcessScheduleInput: Schedule:Day:Interval=\"RESIDENTIAL WINDOW SHADING SCHEDULE ALLDAY5\", Blank Schedule Type Limits Name input -- will not be validated.",
    "   ** Warning ** ProcessScheduleInput: Schedule:Day:Interval=\"RESIDENTIAL WINDOW SHADING SCHEDULE ALLDAY6\", Blank Schedule Type Limits Name input -- will not be validated.",
    "   ** Warning ** ProcessScheduleInput: Schedule:Day:Interval=\"RESIDENTIAL WINDOW SHADING SCHEDULE ALLDAY7\", Blank Schedule Type Limits Name input -- will not be validated.",
    "   ** Warning ** ProcessScheduleInput: Schedule:Day:Interval=\"RESIDENTIAL WINDOW SHADING SCHEDULE ALLDAY8\", Blank Schedule Type Limits Name input -- will not be validated.",
    "   ** Warning ** ProcessScheduleInput: Schedule:Day:Interval=\"RESIDENTIAL WINDOW SHADING SCHEDULE ALLDAY9\", Blank Schedule Type Limits Name input -- will not be validated.",
    "   ** Warning ** ProcessScheduleInput: Schedule:Day:Interval=\"SCHEDULE DAY 10\", Blank Schedule Type Limits Name input -- will not be validated.",
    "   ** Warning ** ProcessScheduleInput: Schedule:Day:Interval=\"SCHEDULE DAY 11\", Blank Schedule Type Limits Name input -- will not be validated.",
    "   ** Warning ** ProcessScheduleInput: Schedule:Day:Interval=\"SCHEDULE DAY 12\", Blank Schedule Type Limits Name input -- will not be validated.",
    "   ** Warning ** ProcessScheduleInput: Schedule:Day:Interval=\"SCHEDULE DAY 13\", Blank Schedule Type Limits Name input -- will not be validated.",
    "   ** Warning ** ProcessScheduleInput: Schedule:Day:Interval=\"SCHEDULE DAY 14\", Blank Schedule Type Limits Name input -- will not be validated.",
    "   ** Warning ** ProcessScheduleInput: Schedule:Day:Interval=\"SCHEDULE DAY 3\", Blank Schedule Type Limits Name input -- will not be validated.",
    "   ** Warning ** ProcessScheduleInput: Schedule:Day:Interval=\"SCHEDULE DAY 8\", Blank Schedule Type Limits Name input -- will not be validated.",
    "   ** Warning ** ProcessScheduleInput: Schedule:Day:Interval=\"SCHEDULE DAY 9\", Blank Schedule Type Limits Name input -- will not be validated.",
    "   ** Warning ** ProcessScheduleInput: Schedule:Year=\"RES INFIL_U 1 BATH EXHAUST SCHEDULE\", Blank Schedule Type Limits Name input -- will not be validated.",
    "   ** Warning ** ProcessScheduleInput: Schedule:Year=\"RES INFIL_U 1 CLOTHES DRYER EXHAUST SCHEDULE\", Blank Schedule Type Limits Name input -- will not be validated.",
    "   ** Warning ** ProcessScheduleInput: Schedule:Year=\"RES INFIL_U 1 RANGE HOOD SCHEDULE\", Blank Schedule Type Limits Name input -- will not be validated.",
    "   ** Warning ** ProcessScheduleInput: Schedule:Year=\"RES MV_U 1 ENERGY SCHEDULE\", Blank Schedule Type Limits Name input -- will not be validated.",
    "   ** Warning ** ProcessScheduleInput: Schedule:Year=\"RES MV_U 1 SCHEDULE\", Blank Schedule Type Limits Name input -- will not be validated.",
    "   ** Warning ** ProcessScheduleInput: Schedule:Year=\"RES NV_U 1 AVAIL SCHEDULE\", Blank Schedule Type Limits Name input -- will not be validated.",
    "   ** Warning ** ProcessScheduleInput: Schedule:Year=\"RES NV_U 1 TEMP SCHEDULE\", Blank Schedule Type Limits Name input -- will not be validated.",
    "   ** Warning ** ProcessScheduleInput: Schedule:Year=\"RESIDENTIAL WINDOW SHADING SCHEDULE\", Blank Schedule Type Limits Name input -- will not be validated.",
    "   ** Warning ** GetSurfaceData: Entered Zone Floor Areas differ from calculated Zone Floor Area(s).",
    "   **   ~~~   ** ...use Output:Diagnostics,DisplayExtraWarnings; to show more details on individual zones.",
    "   ************* Note that the following warning(s) may/will occur if you have not enclosed your zone completely.",
    "   ** Warning ** Entered Zone Volumes differ from calculated zone volume(s).",
    "   **   ~~~   ** ...use Output:Diagnostics,DisplayExtraWarnings; to show more details on individual zones.",
    "   ** Warning ** CheckUsedConstructions: There are 1 nominally unused constructions in input.",
    "   **   ~~~   ** For explicit details on each unused construction, use Output:Diagnostics,DisplayExtraWarnings;",
    "   ** Warning ** The Standard Ratings is calculated for Coil:Cooling:DX:SingleSpeed = RESIDENTIAL CENTRAL AC COOLING COIL but not at the AHRI test condition due to curve out of bound.",
    "   **   ~~~   **  Review the Standard Ratings calculations in the Engineering Reference for this coil type. Also, use Output:Diagnostics, DisplayExtraWarnings for further guidance.",
    "   ** Warning ** Generator:MicroTurbine \"RESIDENTIAL PHOTOVOLTAICS GENERATOR\"",
    "   **   ~~~   ** Electrical Efficiency Function of Temperature Curve Name = NULL INPUT CURVE CUBIC 1",
    "   **   ~~~   ** ... Curve output at reference condition should equal 1 (+-10%).",
    "   **   ~~~   ** ... Reference combustion air inlet temperature = 15.0000 C",
    "   **   ~~~   ** ... Curve output                               = 1.0000E+028",
    "   ** Warning ** Generator:MicroTurbine \"RESIDENTIAL PHOTOVOLTAICS GENERATOR\"",
    "   **   ~~~   ** Electrical Efficiency Function of Part Load Ratio Curve Name = NULL INPUT CURVE CUBIC 2",
    "   **   ~~~   ** ... Curve output at a part-load ratio of 1 should equal 1 (+-10%).",
    "   **   ~~~   ** ... Curve output = 1.0000E+028",
    "   ** Warning ** Check input. Pump nominal power or motor efficiency is set to 0, for pump=PUMP VARIABLE SPEED 1",
    "   ** Warning ** Output:Meter: invalid Key Name=\"PROPANE:FACILITY\" - not found.",
    "   ** Warning ** Output:Meter: invalid Key Name=\"PROPANE:FACILITY\" - not found.",
    "   ** Warning ** Output:Meter: invalid Key Name=\"DISTRICTCOOLING:FACILITY\" - not found.",
    "   ** Warning ** Output:Meter: invalid Key Name=\"DISTRICTHEATING:FACILITY\" - not found.",
    "   ** Warning ** Output:Meter:MeterFileOnly requested for \"Electricity:Facility\" (TimeStep), already on \"Output:Meter\". Will report to both eplusout.eso and eplusout.mtr",
    "   ************* Testing Individual Branch Integrity",
    "   ************* All Branches passed integrity testing",
    "   ************* Testing Individual Supply Air Path Integrity",
    "   ************* All Supply Air Paths passed integrity testing",
    "   ************* Testing Individual Return Air Path Integrity",
    "   ************* All Return Air Paths passed integrity testing",
    "   ************* No node connection errors were found.",
    "   ** Severe  ** Invalid Output:Variable or Output:Meter Index Key Name =",
    "   **   ~~~   ** For Output:Variable or Output:Meter = SITE WIND SPEED",
    "   **   ~~~   ** Entered in EnergyManagementSystem:Sensor=RES_AF_U_1_VW_S",
    "   **   ~~~   ** Unique Key Name not found.",
    "   ** Severe  ** Invalid Output:Variable or Output:Meter Index Key Name =",
    "   **   ~~~   ** For Output:Variable or Output:Meter = SITE OUTDOOR AIR BAROMETRIC PRESSURE",
    "   **   ~~~   ** Entered in EnergyManagementSystem:Sensor=RES_NV_U_1_PB_S",
    "   **   ~~~   ** Unique Key Name not found.",
    "   ** Severe  ** Invalid Output:Variable or Output:Meter Index Key Name =",
    "   **   ~~~   ** For Output:Variable or Output:Meter = SITE OUTDOOR AIR HUMIDITY RATIO",
    "   **   ~~~   ** Entered in EnergyManagementSystem:Sensor=RES_NV_U_1_WT_S",
    "   **   ~~~   ** Unique Key Name not found.",
    "   **  Fatal  ** Errors found in processing Energy Management System input. Preceding condition causes termination.",
    "   ...Summary of Errors that led to program termination:",
    "   ..... Reference severe error count=3",
    "   ..... Last severe error=Invalid Output:Variable or Output:Meter Index Key Name =",
    "   ************* Warning:  Node connection errors not checked - most system input has not been read (see previous warning).",
    "   ************* Fatal error -- final processing.  Program exited before simulations began.  See previous error messages.",
    "   *************",
    "   ************* ===== Recurring Surface Error Summary =====",
    "   ************* The following surface error messages occurred.",
    "   *************",
    "   ************* Base Surface does not surround subsurface errors occuring...",
    "   ************* Check that the GlobalGeometryRules object is expressing the proper starting corner and direction [CounterClockwise/Clockwise]",
    "   *************",
    "   ** Warning ** Base surface does not surround subsurface (CHKSBS), Overlap Status=No-Overlap",
    "   **   ~~~   **   The base surround errors occurred 1 times.",
    "   **   ~~~   ** Surface \"SURFACE 18\" misses SubSurface \"UNIT 1 - SURFACE 5 - DOOR\"",
    "   *************",
    "   **   ~~~   **   The base surround errors occurred 1 times (total).",
    "   *************",
    "   ** Warning ** Check control types on branches between splitter and mixer in PlantLoop=DOMESTIC HOT WATER LOOP",
    "   **   ~~~   ** Found a BYPASS branch with no ACTIVE branch in parallel with it",
    "   **   ~~~   ** In certain (but not all) situations, this can cause problems; please verify your inputs",
    "   **   ~~~   ** Bypass branch named: DOMESTIC HOT WATER LOOP DEMAND BRANCH 1",
    "   ** Warning ** Check control types on branches between splitter and mixer in PlantLoop=DOMESTIC HOT WATER LOOP",
    "   **   ~~~   ** Found a BYPASS branch with no ACTIVE branch in parallel with it",
    "   **   ~~~   ** In certain (but not all) situations, this can cause problems; please verify your inputs",
    "   **   ~~~   ** Bypass branch named: DOMESTIC HOT WATER LOOP DEMAND BYPASS BRANCH",
    "   *************",
    "   ************* ===== Final Error Summary =====",
    "   ************* The following error categories occurred.  Consider correcting or noting.",
    "   ************* Nominally Unused Constructions",
    "   ************* ..The nominally unused constructions warning is provided to alert you to potential conditions that can cause",
    "   ************* ..extra time during simulation. Each construction is calculated by the algorithm indicated in the HeatBalanceAlgorithm",
    "   ************* ..object. You may remove the constructions indicated (when you use the DisplayExtraWarnings option).",
    "   *************",
    "   ************* EnergyPlus Warmup Error Summary. During Warmup: 0 Warning; 0 Severe Errors.",
    "   ************* EnergyPlus Sizing Error Summary. During Sizing: 0 Warning; 0 Severe Errors.",
    "   ************* EnergyPlus Terminated--Fatal Error Detected. 129 Warning; 3 Severe Errors; "
  ],
  "seed_file": "in.osm",
  "steps": [
    {
      "arguments": {
      },
      "measure_dir_name": "openstudio_results"
    }
  ],
  "weather_file": "../../weatherdata/USA_IL_Chicago-OHare.Intl.AP.725300_TMY3.epw"
}