{
   "completed_at" : "20180206T085826Z",
   "completed_status" : "Fail",
   "current_step" : 1,
   "eplusout_err" : "Program Version,EnergyPlus, Version 8.6.0-198c6a3cff, YMD=2018.02.06 08:57,IDD_Version 8.6.0\n   ************* Beginning Zone Sizing Calculations\n   ** Warning ** ProcessScheduleInput: Schedule:Day:Interval=\"SCHEDULE DAY 2\", Blank Schedule Type Limits Name input -- will not be validated.\n   ** Warning ** ProcessScheduleInput: Schedule:Day:Interval=\"SCHEDULE DAY 3\", Blank Schedule Type Limits Name input -- will not be validated.\n   ** Warning ** ProcessScheduleInput: Schedule:Day:Interval=\"SCHEDULE DAY 4\", Blank Schedule Type Limits Name input -- will not be validated.\n   ** Warning ** ProcessScheduleInput: Schedule:Day:Interval=\"SCHEDULE DAY 5\", Blank Schedule Type Limits Name input -- will not be validated.\n   ** Warning ** ProcessScheduleInput: Schedule:Constant=\"ALWAYS OFF DISCRETE\", Blank Schedule Type Limits Name input -- will not be validated.\n   ** Warning ** ProcessScheduleInput: Schedule:Constant=\"ALWAYS ON CONTINUOUS\", Blank Schedule Type Limits Name input -- will not be validated.\n   ** Warning ** GetHTSurfaceData: Surfaces with interface to Ground found but no \"Ground Temperatures\" were input.\n   **   ~~~   ** Found first in surface=SURFACE 25\n   **   ~~~   ** Defaults, constant throughout the year of (18.0) will be used.\n   ** Warning ** CheckUsedConstructions: There are 6 nominally unused constructions in input.\n   **   ~~~   ** For explicit details on each unused construction, use Output:Diagnostics,DisplayExtraWarnings;\n   ** Warning ** GetSimpleAirModelInputs: ZoneInfiltration:DesignFlowRate=\"THERMAL ZONE 10 BASELINE MODEL INFILTRATION\", Design Flow Rate Calculation Method specifies Flow per Exterior Surface Area, but Exterior Surface Area = 0.  0 Infiltration will result.\n   ************* Beginning System Sizing Calculations\n   ** Warning ** SetpointManager:MixedAir=\"NODE 18 OS DEFAULT SPM\"\n   **   ~~~   ** ...setpoint node conflicts with another setpoint manager.\n   **   ~~~   ** ...conflicting setpoint manager = SetpointManager:MixedAir:\"SETPOINT MANAGER MIXED AIR 3\"\n   **   ~~~   ** ...conflicting node name = NODE 18\n   **   ~~~   ** ...control type variable = Temperature\n   ** Warning ** SetpointManager:MixedAir=\"NODE 19 OS DEFAULT SPM\"\n   **   ~~~   ** ...setpoint node conflicts with another setpoint manager.\n   **   ~~~   ** ...conflicting setpoint manager = SetpointManager:MixedAir:\"SETPOINT MANAGER MIXED AIR 2\"\n   **   ~~~   ** ...conflicting node name = NODE 19\n   **   ~~~   ** ...control type variable = Temperature\n   ** Warning ** SetpointManager:MixedAir=\"SETPOINT MANAGER MIXED AIR 1\"\n   **   ~~~   ** ...setpoint node conflicts with another setpoint manager.\n   **   ~~~   ** ...conflicting setpoint manager = SetpointManager:MixedAir:\"NODE 20 OS DEFAULT SPM\"\n   **   ~~~   ** ...conflicting node name = NODE 20\n   **   ~~~   ** ...control type variable = Temperature\n   ** Warning ** SetpointManager:MixedAir=\"SETPOINT MANAGER MIXED AIR 30\"\n   **   ~~~   ** ...setpoint node conflicts with another setpoint manager.\n   **   ~~~   ** ...conflicting setpoint manager = SetpointManager:MixedAir:\"NODE 117 OS DEFAULT SPM\"\n   **   ~~~   ** ...conflicting node name = NODE 117\n   **   ~~~   ** ...control type variable = Temperature\n   ** Warning ** SetpointManager:MixedAir=\"SETPOINT MANAGER MIXED AIR 29\"\n   **   ~~~   ** ...setpoint node conflicts with another setpoint manager.\n   **   ~~~   ** ...conflicting setpoint manager = SetpointManager:MixedAir:\"NODE 118 OS DEFAULT SPM\"\n   **   ~~~   ** ...conflicting node name = NODE 118\n   **   ~~~   ** ...control type variable = Temperature\n   ** Warning ** SetpointManager:MixedAir=\"NODE 119 OS DEFAULT SPM\"\n   **   ~~~   ** ...setpoint node conflicts with another setpoint manager.\n   **   ~~~   ** ...conflicting setpoint manager = SetpointManager:MixedAir:\"SETPOINT MANAGER MIXED AIR 28\"\n   **   ~~~   ** ...conflicting node name = NODE 119\n   **   ~~~   ** ...control type variable = Temperature\n   ** Warning ** SetpointManager:MixedAir=\"NODE 29 OS DEFAULT SPM\"\n   **   ~~~   ** ...setpoint node conflicts with another setpoint manager.\n   **   ~~~   ** ...conflicting setpoint manager = SetpointManager:MixedAir:\"SETPOINT MANAGER MIXED AIR 6\"\n   **   ~~~   ** ...conflicting node name = NODE 29\n   **   ~~~   ** ...control type variable = Temperature\n   ** Warning ** SetpointManager:MixedAir=\"NODE 30 OS DEFAULT SPM\"\n   **   ~~~   ** ...setpoint node conflicts with another setpoint manager.\n   **   ~~~   ** ...conflicting setpoint manager = SetpointManager:MixedAir:\"SETPOINT MANAGER MIXED AIR 5\"\n   **   ~~~   ** ...conflicting node name = NODE 30\n   **   ~~~   ** ...control type variable = Temperature\n   ** Warning ** SetpointManager:MixedAir=\"NODE 31 OS DEFAULT SPM\"\n   **   ~~~   ** ...setpoint node conflicts with another setpoint manager.\n   **   ~~~   ** ...conflicting setpoint manager = SetpointManager:MixedAir:\"SETPOINT MANAGER MIXED AIR 4\"\n   **   ~~~   ** ...conflicting node name = NODE 31\n   **   ~~~   ** ...control type variable = Temperature\n   ** Warning ** SetpointManager:MixedAir=\"NODE 40 OS DEFAULT SPM\"\n   **   ~~~   ** ...setpoint node conflicts with another setpoint manager.\n   **   ~~~   ** ...conflicting setpoint manager = SetpointManager:MixedAir:\"SETPOINT MANAGER MIXED AIR 9\"\n   **   ~~~   ** ...conflicting node name = NODE 40\n   **   ~~~   ** ...control type variable = Temperature\n   ** Warning ** SetpointManager:MixedAir=\"SETPOINT MANAGER MIXED AIR 8\"\n   **   ~~~   ** ...setpoint node conflicts with another setpoint manager.\n   **   ~~~   ** ...conflicting setpoint manager = SetpointManager:MixedAir:\"NODE 41 OS DEFAULT SPM\"\n   **   ~~~   ** ...conflicting node name = NODE 41\n   **   ~~~   ** ...control type variable = Temperature\n   ** Warning ** SetpointManager:MixedAir=\"SETPOINT MANAGER MIXED AIR 7\"\n   **   ~~~   ** ...setpoint node conflicts with another setpoint manager.\n   **   ~~~   ** ...conflicting setpoint manager = SetpointManager:MixedAir:\"NODE 42 OS DEFAULT SPM\"\n   **   ~~~   ** ...conflicting node name = NODE 42\n   **   ~~~   ** ...control type variable = Temperature\n   ** Warning ** SetpointManager:MixedAir=\"NODE 51 OS DEFAULT SPM\"\n   **   ~~~   ** ...setpoint node conflicts with another setpoint manager.\n   **   ~~~   ** ...conflicting setpoint manager = SetpointManager:MixedAir:\"SETPOINT MANAGER MIXED AIR 12\"\n   **   ~~~   ** ...conflicting node name = NODE 51\n   **   ~~~   ** ...control type variable = Temperature\n   ** Warning ** SetpointManager:MixedAir=\"SETPOINT MANAGER MIXED AIR 11\"\n   **   ~~~   ** ...setpoint node conflicts with another setpoint manager.\n   **   ~~~   ** ...conflicting setpoint manager = SetpointManager:MixedAir:\"NODE 52 OS DEFAULT SPM\"\n   **   ~~~   ** ...conflicting node name = NODE 52\n   **   ~~~   ** ...control type variable = Temperature\n   ** Warning ** SetpointManager:MixedAir=\"NODE 53 OS DEFAULT SPM\"\n   **   ~~~   ** ...setpoint node conflicts with another setpoint manager.\n   **   ~~~   ** ...conflicting setpoint manager = SetpointManager:MixedAir:\"SETPOINT MANAGER MIXED AIR 10\"\n   **   ~~~   ** ...conflicting node name = NODE 53\n   **   ~~~   ** ...control type variable = Temperature\n   ** Warning ** SetpointManager:MixedAir=\"SETPOINT MANAGER MIXED AIR 15\"\n   **   ~~~   ** ...setpoint node conflicts with another setpoint manager.\n   **   ~~~   ** ...conflicting setpoint manager = SetpointManager:MixedAir:\"NODE 62 OS DEFAULT SPM\"\n   **   ~~~   ** ...conflicting node name = NODE 62\n   **   ~~~   ** ...control type variable = Temperature\n   ** Warning ** SetpointManager:MixedAir=\"SETPOINT MANAGER MIXED AIR 14\"\n   **   ~~~   ** ...setpoint node conflicts with another setpoint manager.\n   **   ~~~   ** ...conflicting setpoint manager = SetpointManager:MixedAir:\"NODE 63 OS DEFAULT SPM\"\n   **   ~~~   ** ...conflicting node name = NODE 63\n   **   ~~~   ** ...control type variable = Temperature\n   ** Warning ** SetpointManager:MixedAir=\"SETPOINT MANAGER MIXED AIR 13\"\n   **   ~~~   ** ...setpoint node conflicts with another setpoint manager.\n   **   ~~~   ** ...conflicting setpoint manager = SetpointManager:MixedAir:\"NODE 64 OS DEFAULT SPM\"\n   **   ~~~   ** ...conflicting node name = NODE 64\n   **   ~~~   ** ...control type variable = Temperature\n   ** Warning ** SetpointManager:MixedAir=\"NODE 73 OS DEFAULT SPM\"\n   **   ~~~   ** ...setpoint node conflicts with another setpoint manager.\n   **   ~~~   ** ...conflicting setpoint manager = SetpointManager:MixedAir:\"SETPOINT MANAGER MIXED AIR 18\"\n   **   ~~~   ** ...conflicting node name = NODE 73\n   **   ~~~   ** ...control type variable = Temperature\n   ** Warning ** SetpointManager:MixedAir=\"SETPOINT MANAGER MIXED AIR 17\"\n   **   ~~~   ** ...setpoint node conflicts with another setpoint manager.\n   **   ~~~   ** ...conflicting setpoint manager = SetpointManager:MixedAir:\"NODE 74 OS DEFAULT SPM\"\n   **   ~~~   ** ...conflicting node name = NODE 74\n   **   ~~~   ** ...control type variable = Temperature\n   ** Warning ** SetpointManager:MixedAir=\"SETPOINT MANAGER MIXED AIR 16\"\n   **   ~~~   ** ...setpoint node conflicts with another setpoint manager.\n   **   ~~~   ** ...conflicting setpoint manager = SetpointManager:MixedAir:\"NODE 75 OS DEFAULT SPM\"\n   **   ~~~   ** ...conflicting node name = NODE 75\n   **   ~~~   ** ...control type variable = Temperature\n   ** Warning ** SetpointManager:MixedAir=\"NODE 84 OS DEFAULT SPM\"\n   **   ~~~   ** ...setpoint node conflicts with another setpoint manager.\n   **   ~~~   ** ...conflicting setpoint manager = SetpointManager:MixedAir:\"SETPOINT MANAGER MIXED AIR 21\"\n   **   ~~~   ** ...conflicting node name = NODE 84\n   **   ~~~   ** ...control type variable = Temperature\n   ** Warning ** SetpointManager:MixedAir=\"SETPOINT MANAGER MIXED AIR 20\"\n   **   ~~~   ** ...setpoint node conflicts with another setpoint manager.\n   **   ~~~   ** ...conflicting setpoint manager = SetpointManager:MixedAir:\"NODE 85 OS DEFAULT SPM\"\n   **   ~~~   ** ...conflicting node name = NODE 85\n   **   ~~~   ** ...control type variable = Temperature\n   ** Warning ** SetpointManager:MixedAir=\"SETPOINT MANAGER MIXED AIR 19\"\n   **   ~~~   ** ...setpoint node conflicts with another setpoint manager.\n   **   ~~~   ** ...conflicting setpoint manager = SetpointManager:MixedAir:\"NODE 86 OS DEFAULT SPM\"\n   **   ~~~   ** ...conflicting node name = NODE 86\n   **   ~~~   ** ...control type variable = Temperature\n   ** Warning ** SetpointManager:MixedAir=\"SETPOINT MANAGER MIXED AIR 24\"\n   **   ~~~   ** ...setpoint node conflicts with another setpoint manager.\n   **   ~~~   ** ...conflicting setpoint manager = SetpointManager:MixedAir:\"NODE 95 OS DEFAULT SPM\"\n   **   ~~~   ** ...conflicting node name = NODE 95\n   **   ~~~   ** ...control type variable = Temperature\n   ** Warning ** SetpointManager:MixedAir=\"SETPOINT MANAGER MIXED AIR 23\"\n   **   ~~~   ** ...setpoint node conflicts with another setpoint manager.\n   **   ~~~   ** ...conflicting setpoint manager = SetpointManager:MixedAir:\"NODE 96 OS DEFAULT SPM\"\n   **   ~~~   ** ...conflicting node name = NODE 96\n   **   ~~~   ** ...control type variable = Temperature\n   ** Warning ** SetpointManager:MixedAir=\"NODE 97 OS DEFAULT SPM\"\n   **   ~~~   ** ...setpoint node conflicts with another setpoint manager.\n   **   ~~~   ** ...conflicting setpoint manager = SetpointManager:MixedAir:\"SETPOINT MANAGER MIXED AIR 22\"\n   **   ~~~   ** ...conflicting node name = NODE 97\n   **   ~~~   ** ...control type variable = Temperature\n   ** Warning ** SetpointManager:MixedAir=\"NODE 106 OS DEFAULT SPM\"\n   **   ~~~   ** ...setpoint node conflicts with another setpoint manager.\n   **   ~~~   ** ...conflicting setpoint manager = SetpointManager:MixedAir:\"SETPOINT MANAGER MIXED AIR 27\"\n   **   ~~~   ** ...conflicting node name = NODE 106\n   **   ~~~   ** ...control type variable = Temperature\n   ** Warning ** SetpointManager:MixedAir=\"SETPOINT MANAGER MIXED AIR 26\"\n   **   ~~~   ** ...setpoint node conflicts with another setpoint manager.\n   **   ~~~   ** ...conflicting setpoint manager = SetpointManager:MixedAir:\"NODE 107 OS DEFAULT SPM\"\n   **   ~~~   ** ...conflicting node name = NODE 107\n   **   ~~~   ** ...control type variable = Temperature\n   ** Warning ** SetpointManager:MixedAir=\"NODE 108 OS DEFAULT SPM\"\n   **   ~~~   ** ...setpoint node conflicts with another setpoint manager.\n   **   ~~~   ** ...conflicting setpoint manager = SetpointManager:MixedAir:\"SETPOINT MANAGER MIXED AIR 25\"\n   **   ~~~   ** ...conflicting node name = NODE 108\n   **   ~~~   ** ...control type variable = Temperature\n   ** Warning ** Output:Meter: invalid Name=\"DISTRICTCOOLING:FACILITY\" - not found.\n   ** Warning ** Output:Meter: invalid Name=\"DISTRICTHEATING:FACILITY\" - not found.\n   ** Warning ** Output:Meter:MeterFileOnly requested for \"Electricity:Facility\" (TimeStep), already on \"Output:Meter\". Will report to both eplusout.eso and eplusout.mtr\n   ************* Testing Individual Branch Integrity\n   ************* All Branches passed integrity testing\n   ************* Testing Individual Supply Air Path Integrity\n   ************* All Supply Air Paths passed integrity testing\n   ************* Testing Individual Return Air Path Integrity\n   ************* All Return Air Paths passed integrity testing\n   ************* No node connection errors were found.\n   ************* Beginning Simulation\n   ** Warning ** Given Wet Bulb Temperature invalid (PsyWFnTdbTwbPb)\n   **   ~~~   **  Routine=Unknown, Environment=CHICAGO OHARE INTL AP ANN CLG .4% CONDNS DB=>MWB, at Simulation time=07/21 05:20 - 05:30\n   **   ~~~   **  Dry-Bulb= 17.08 Pressure= 98934.00\n   **   ~~~   ** Calculated Wet-Bulb= 17.11 ... Since Dry Bulb < Wet Bulb, Wet Bulb set = to Dry Bulb\n   ** Warning ** CalcDoe2DXCoil: Coil:Cooling:DX:SingleSpeed \"COIL COOLING DX SINGLE SPEED 2\" - Air-cooled condenser inlet dry-bulb temperature below 0 C. Outdoor dry-bulb temperature = -7.43\n   **   ~~~   **  ... Occurrence info = RUN PERIOD 1, 01/01 09:30 - 09:40\n   **   ~~~   ** ... Operation at low ambient temperatures may require special performance curves.\n   ** Warning ** CalcDoe2DXCoil: Coil:Cooling:DX:SingleSpeed \"COIL COOLING DX SINGLE SPEED 2\" - Full load outlet air dry-bulb temperature < 2C. This indicates the possibility of coil frost/freeze. Outlet temperature = -0.55 C.\n   **   ~~~   **  ...Occurrence info = RUN PERIOD 1, 01/01 09:30 - 09:40\n   **   ~~~   ** ... Possible reasons for low outlet air dry-bulb temperatures are: This DX coil\n   **   ~~~   **    1) may have a low inlet air dry-bulb temperature. Inlet air temperature = 21.322 C.\n   **   ~~~   **    2) may have a low air flow rate per watt of cooling capacity. Check inputs.\n   **   ~~~   **    3) is used as part of a HX assisted cooling coil which uses a high sensible effectiveness. Check inputs.\n   ** Warning ** CalcDoe2DXCoil: Coil:Cooling:DX:SingleSpeed \"COIL COOLING DX SINGLE SPEED 7\" - Air-cooled condenser inlet dry-bulb temperature below 0 C. Outdoor dry-bulb temperature = -6.13\n   **   ~~~   **  ... Occurrence info = RUN PERIOD 1, 01/01 10:15 - 10:20\n   **   ~~~   ** ... Operation at low ambient temperatures may require special performance curves.\n   ** Warning ** CalcDoe2DXCoil: Coil:Cooling:DX:SingleSpeed \"COIL COOLING DX SINGLE SPEED 7\" - Full load outlet air dry-bulb temperature < 2C. This indicates the possibility of coil frost/freeze. Outlet temperature = 0.20 C.\n   **   ~~~   **  ...Occurrence info = RUN PERIOD 1, 01/01 10:15 - 10:20\n   **   ~~~   ** ... Possible reasons for low outlet air dry-bulb temperatures are: This DX coil\n   **   ~~~   **    1) may have a low inlet air dry-bulb temperature. Inlet air temperature = 22.075 C.\n   **   ~~~   **    2) may have a low air flow rate per watt of cooling capacity. Check inputs.\n   **   ~~~   **    3) is used as part of a HX assisted cooling coil which uses a high sensible effectiveness. Check inputs.\n   ** Warning ** CalcDoe2DXCoil: Coil:Cooling:DX:SingleSpeed \"COIL COOLING DX SINGLE SPEED 4\" - Full load outlet air dry-bulb temperature < 2C. This indicates the possibility of coil frost/freeze. Outlet temperature = -1.68 C.\n   **   ~~~   **  ...Occurrence info = RUN PERIOD 1, 01/02 13:10 - 13:20\n   **   ~~~   ** ... Possible reasons for low outlet air dry-bulb temperatures are: This DX coil\n   **   ~~~   **    1) may have a low inlet air dry-bulb temperature. Inlet air temperature = 18.096 C.\n   **   ~~~   **    2) may have a low air flow rate per watt of cooling capacity. Check inputs.\n   **   ~~~   **    3) is used as part of a HX assisted cooling coil which uses a high sensible effectiveness. Check inputs.\n   ** Warning ** CalcDoe2DXCoil: Coil:Cooling:DX:SingleSpeed \"COIL COOLING DX SINGLE SPEED 6\" - Air-cooled condenser inlet dry-bulb temperature below 0 C. Outdoor dry-bulb temperature = -4.75\n   **   ~~~   **  ... Occurrence info = RUN PERIOD 1, 01/05 14:20 - 14:30\n   **   ~~~   ** ... Operation at low ambient temperatures may require special performance curves.\n   ** Warning ** CalcDoe2DXCoil: Coil:Cooling:DX:SingleSpeed \"COIL COOLING DX SINGLE SPEED 6\" - Full load outlet air dry-bulb temperature < 2C. This indicates the possibility of coil frost/freeze. Outlet temperature = -1.69E-002 C.\n   **   ~~~   **  ...Occurrence info = RUN PERIOD 1, 01/05 14:20 - 14:30\n   **   ~~~   ** ... Possible reasons for low outlet air dry-bulb temperatures are: This DX coil\n   **   ~~~   **    1) may have a low inlet air dry-bulb temperature. Inlet air temperature = 21.837 C.\n   **   ~~~   **    2) may have a low air flow rate per watt of cooling capacity. Check inputs.\n   **   ~~~   **    3) is used as part of a HX assisted cooling coil which uses a high sensible effectiveness. Check inputs.\n   ** Warning ** CalcDoe2DXCoil: Coil:Cooling:DX:SingleSpeed \"COIL COOLING DX SINGLE SPEED 1\" - Full load outlet air dry-bulb temperature < 2C. This indicates the possibility of coil frost/freeze. Outlet temperature = -4.01 C.\n   **   ~~~   **  ...Occurrence info = RUN PERIOD 1, 01/16 13:15 - 13:20\n   **   ~~~   ** ... Possible reasons for low outlet air dry-bulb temperatures are: This DX coil\n   **   ~~~   **    1) may have a low inlet air dry-bulb temperature. Inlet air temperature = 13.888 C.\n   **   ~~~   **    2) may have a low air flow rate per watt of cooling capacity. Check inputs.\n   **   ~~~   **    3) is used as part of a HX assisted cooling coil which uses a high sensible effectiveness. Check inputs.\n   ** Warning ** CalcDoe2DXCoil: Coil:Cooling:DX:SingleSpeed \"COIL COOLING DX SINGLE SPEED 3\" - Full load outlet air dry-bulb temperature < 2C. This indicates the possibility of coil frost/freeze. Outlet temperature = 1.85 C.\n   **   ~~~   **  ...Occurrence info = RUN PERIOD 1, 01/17 08:40 - 08:50\n   **   ~~~   ** ... Possible reasons for low outlet air dry-bulb temperatures are: This DX coil\n   **   ~~~   **    1) may have a low inlet air dry-bulb temperature. Inlet air temperature = 22.279 C.\n   **   ~~~   **    2) may have a low air flow rate per watt of cooling capacity. Check inputs.\n   **   ~~~   **    3) is used as part of a HX assisted cooling coil which uses a high sensible effectiveness. Check inputs.\n   ** Warning ** CalcDoe2DXCoil: Coil:Cooling:DX:SingleSpeed \"COIL COOLING DX SINGLE SPEED 10\" - Full load outlet air dry-bulb temperature < 2C. This indicates the possibility of coil frost/freeze. Outlet temperature = 0.91 C.\n   **   ~~~   **  ...Occurrence info = RUN PERIOD 1, 01/20 14:05 - 14:10\n   **   ~~~   ** ... Possible reasons for low outlet air dry-bulb temperatures are: This DX coil\n   **   ~~~   **    1) may have a low inlet air dry-bulb temperature. Inlet air temperature = 22.703 C.\n   **   ~~~   **    2) may have a low air flow rate per watt of cooling capacity. Check inputs.\n   **   ~~~   **    3) is used as part of a HX assisted cooling coil which uses a high sensible effectiveness. Check inputs.\n   ** Warning ** CalcDoe2DXCoil: Coil:Cooling:DX:SingleSpeed \"COIL COOLING DX SINGLE SPEED 10\" - Air-cooled condenser inlet dry-bulb temperature below 0 C. Outdoor dry-bulb temperature = -0.33\n   **   ~~~   **  ... Occurrence info = RUN PERIOD 1, 01/22 17:10 - 17:15\n   **   ~~~   ** ... Operation at low ambient temperatures may require special performance curves.\n   ** Warning ** CalcDoe2DXCoil: Coil:Cooling:DX:SingleSpeed \"COIL COOLING DX SINGLE SPEED 4\" - Air-cooled condenser inlet dry-bulb temperature below 0 C. Outdoor dry-bulb temperature = -0.33\n   **   ~~~   **  ... Occurrence info = RUN PERIOD 1, 01/22 17:10 - 17:15\n   **   ~~~   ** ... Operation at low ambient temperatures may require special performance curves.\n   ** Warning ** CalcDoe2DXCoil: Coil:Cooling:DX:SingleSpeed \"COIL COOLING DX SINGLE SPEED 3\" - Air-cooled condenser inlet dry-bulb temperature below 0 C. Outdoor dry-bulb temperature = -2.43\n   **   ~~~   **  ... Occurrence info = RUN PERIOD 1, 01/23 09:35 - 09:40\n   **   ~~~   ** ... Operation at low ambient temperatures may require special performance curves.\n   ** Warning ** CalcDoe2DXCoil: Coil:Cooling:DX:SingleSpeed \"COIL COOLING DX SINGLE SPEED 8\" - Full load outlet air dry-bulb temperature < 2C. This indicates the possibility of coil frost/freeze. Outlet temperature = 1.30 C.\n   **   ~~~   **  ...Occurrence info = RUN PERIOD 1, 02/10 09:15 - 09:20\n   **   ~~~   ** ... Possible reasons for low outlet air dry-bulb temperatures are: This DX coil\n   **   ~~~   **    1) may have a low inlet air dry-bulb temperature. Inlet air temperature = 22.818 C.\n   **   ~~~   **    2) may have a low air flow rate per watt of cooling capacity. Check inputs.\n   **   ~~~   **    3) is used as part of a HX assisted cooling coil which uses a high sensible effectiveness. Check inputs.\n   ** Warning ** CalcDoe2DXCoil: Coil:Cooling:DX:SingleSpeed \"COIL COOLING DX SINGLE SPEED 8\" - Air-cooled condenser inlet dry-bulb temperature below 0 C. Outdoor dry-bulb temperature = -5.60\n   **   ~~~   **  ... Occurrence info = RUN PERIOD 1, 02/20 08:55 - 09:00\n   **   ~~~   ** ... Operation at low ambient temperatures may require special performance curves.\n   ** Warning ** CalcDoe2DXCoil: Coil:Cooling:DX:SingleSpeed \"COIL COOLING DX SINGLE SPEED 5\" - Full load outlet air dry-bulb temperature < 2C. This indicates the possibility of coil frost/freeze. Outlet temperature = 1.81 C.\n   **   ~~~   **  ...Occurrence info = RUN PERIOD 1, 03/09 12:15 - 12:20\n   **   ~~~   ** ... Possible reasons for low outlet air dry-bulb temperatures are: This DX coil\n   **   ~~~   **    1) may have a low inlet air dry-bulb temperature. Inlet air temperature = 23.244 C.\n   **   ~~~   **    2) may have a low air flow rate per watt of cooling capacity. Check inputs.\n   **   ~~~   **    3) is used as part of a HX assisted cooling coil which uses a high sensible effectiveness. Check inputs.\n   ************* Simulation Error Summary *************\n   ************* There are 2 unused schedules in input.\n   ************* There are 2 unused week schedules in input.\n   ************* There are 6 unused day schedules in input.\n   ************* Use Output:Diagnostics,DisplayUnusedSchedules; to see them.\n   *************\n   ************* ===== Recurring Error Summary =====\n   ************* The following recurring error messages occurred.\n   *************\n   *************  ** Warning ** Given Wet Bulb Temperature invalid (PsyWFnTdbTwbPb)\n   *************  **   ~~~   **   This error occurred 174 total times;\n   *************  **   ~~~   **   during Warmup 0 times;\n   *************  **   ~~~   **   during Sizing 0 times.\n   *************  **   ~~~   **   Max=25.366849 C  Min=15.321253 C\n   *************\n   *************  ** Warning ** CalcDoe2DXCoil: Coil:Cooling:DX:SingleSpeed=\"COIL COOLING DX SINGLE SPEED 2\" - Low condenser dry-bulb temperature error continues...\n   *************  **   ~~~   **   This error occurred 831 total times;\n   *************  **   ~~~   **   during Warmup 0 times;\n   *************  **   ~~~   **   during Sizing 0 times.\n   *************  **   ~~~   **   Max=-3.333333E-002 [C]  Min=-17.616667 [C]\n   *************\n   *************  ** Warning ** CalcDoe2DXCoil: Coil:Cooling:DX:SingleSpeed=\"COIL COOLING DX SINGLE SPEED 2\" - Full load outlet temperature indicates a possibility of frost/freeze error continues. Outlet air temperature statistics follow:\n   *************  **   ~~~   **   This error occurred 509 total times;\n   *************  **   ~~~   **   during Warmup 0 times;\n   *************  **   ~~~   **   during Sizing 0 times.\n   *************  **   ~~~   **   Max=1.999487  Min=-1.496998\n   *************\n   *************  ** Warning ** CalcDoe2DXCoil: Coil:Cooling:DX:SingleSpeed=\"COIL COOLING DX SINGLE SPEED 7\" - Low condenser dry-bulb temperature error continues...\n   *************  **   ~~~   **   This error occurred 612 total times;\n   *************  **   ~~~   **   during Warmup 0 times;\n   *************  **   ~~~   **   during Sizing 0 times.\n   *************  **   ~~~   **   Max=-3.333333E-002 [C]  Min=-16.6 [C]\n   *************\n   *************  ** Warning ** CalcDoe2DXCoil: Coil:Cooling:DX:SingleSpeed=\"COIL COOLING DX SINGLE SPEED 7\" - Full load outlet temperature indicates a possibility of frost/freeze error continues. Outlet air temperature statistics follow:\n   *************  **   ~~~   **   This error occurred 457 total times;\n   *************  **   ~~~   **   during Warmup 0 times;\n   *************  **   ~~~   **   during Sizing 0 times.\n   *************  **   ~~~   **   Max=1.998589  Min=-0.622086\n   *************\n   *************  ** Warning ** CalcDoe2DXCoil: Coil:Cooling:DX:SingleSpeed=\"COIL COOLING DX SINGLE SPEED 4\" - Full load outlet temperature indicates a possibility of frost/freeze error continues. Outlet air temperature statistics follow:\n   *************  **   ~~~   **   This error occurred 537 total times;\n   *************  **   ~~~   **   during Warmup 0 times;\n   *************  **   ~~~   **   during Sizing 0 times.\n   *************  **   ~~~   **   Max=1.999754  Min=-3.199613\n   *************\n   *************  ** Warning ** CalcDoe2DXCoil: Coil:Cooling:DX:SingleSpeed=\"COIL COOLING DX SINGLE SPEED 6\" - Low condenser dry-bulb temperature error continues...\n   *************  **   ~~~   **   This error occurred 63 total times;\n   *************  **   ~~~   **   during Warmup 0 times;\n   *************  **   ~~~   **   during Sizing 0 times.\n   *************  **   ~~~   **   Max=-0.183333 [C]  Min=-10.1 [C]\n   *************\n   *************  ** Warning ** CalcDoe2DXCoil: Coil:Cooling:DX:SingleSpeed=\"COIL COOLING DX SINGLE SPEED 6\" - Full load outlet temperature indicates a possibility of frost/freeze error continues. Outlet air temperature statistics follow:\n   *************  **   ~~~   **   This error occurred 161 total times;\n   *************  **   ~~~   **   during Warmup 0 times;\n   *************  **   ~~~   **   during Sizing 0 times.\n   *************  **   ~~~   **   Max=1.995068  Min=-0.486019\n   *************\n   *************  ** Warning ** CalcDoe2DXCoil: Coil:Cooling:DX:SingleSpeed=\"COIL COOLING DX SINGLE SPEED 1\" - Full load outlet temperature indicates a possibility of frost/freeze error continues. Outlet air temperature statistics follow:\n   *************  **   ~~~   **   This error occurred 203 total times;\n   *************  **   ~~~   **   during Warmup 0 times;\n   *************  **   ~~~   **   during Sizing 0 times.\n   *************  **   ~~~   **   Max=1.996949  Min=-7.877983\n   *************\n   *************  ** Warning ** CalcDoe2DXCoil: Coil:Cooling:DX:SingleSpeed=\"COIL COOLING DX SINGLE SPEED 3\" - Full load outlet temperature indicates a possibility of frost/freeze error continues. Outlet air temperature statistics follow:\n   *************  **   ~~~   **   This error occurred 175 total times;\n   *************  **   ~~~   **   during Warmup 0 times;\n   *************  **   ~~~   **   during Sizing 0 times.\n   *************  **   ~~~   **   Max=1.993138  Min=-0.43238\n   *************\n   *************  ** Warning ** CalcDoe2DXCoil: Coil:Cooling:DX:SingleSpeed=\"COIL COOLING DX SINGLE SPEED 10\" - Full load outlet temperature indicates a possibility of frost/freeze error continues. Outlet air temperature statistics follow:\n   *************  **   ~~~   **   This error occurred 106 total times;\n   *************  **   ~~~   **   during Warmup 0 times;\n   *************  **   ~~~   **   during Sizing 0 times.\n   *************  **   ~~~   **   Max=1.995625  Min=0.548767\n   *************\n   *************  ** Warning ** CalcDoe2DXCoil: Coil:Cooling:DX:SingleSpeed=\"COIL COOLING DX SINGLE SPEED 10\" - Low condenser dry-bulb temperature error continues...\n   *************  **   ~~~   **   This error occurred 26 total times;\n   *************  **   ~~~   **   during Warmup 0 times;\n   *************  **   ~~~   **   during Sizing 0 times.\n   *************  **   ~~~   **   Max=-0.333333 [C]  Min=-5.533333 [C]\n   *************\n   *************  ** Warning ** CalcDoe2DXCoil: Coil:Cooling:DX:SingleSpeed=\"COIL COOLING DX SINGLE SPEED 4\" - Low condenser dry-bulb temperature error continues...\n   *************  **   ~~~   **   This error occurred 8 total times;\n   *************  **   ~~~   **   during Warmup 0 times;\n   *************  **   ~~~   **   during Sizing 0 times.\n   *************  **   ~~~   **   Max=-3.333333E-002 [C]  Min=-0.766667 [C]\n   *************\n   *************  ** Warning ** CalcDoe2DXCoil: Coil:Cooling:DX:SingleSpeed=\"COIL COOLING DX SINGLE SPEED 3\" - Low condenser dry-bulb temperature error continues...\n   *************  **   ~~~   **   This error occurred 53 total times;\n   *************  **   ~~~   **   during Warmup 0 times;\n   *************  **   ~~~   **   during Sizing 0 times.\n   *************  **   ~~~   **   Max=-3.333333E-002 [C]  Min=-7.25 [C]\n   *************\n   *************  ** Warning ** CalcDoe2DXCoil: Coil:Cooling:DX:SingleSpeed=\"COIL COOLING DX SINGLE SPEED 8\" - Full load outlet temperature indicates a possibility of frost/freeze error continues. Outlet air temperature statistics follow:\n   *************  **   ~~~   **   This error occurred 132 total times;\n   *************  **   ~~~   **   during Warmup 0 times;\n   *************  **   ~~~   **   during Sizing 0 times.\n   *************  **   ~~~   **   Max=1.999608  Min=0.265391\n   *************\n   *************  ** Warning ** CalcDoe2DXCoil: Coil:Cooling:DX:SingleSpeed=\"COIL COOLING DX SINGLE SPEED 8\" - Low condenser dry-bulb temperature error continues...\n   *************  **   ~~~   **   This error occurred 23 total times;\n   *************  **   ~~~   **   during Warmup 0 times;\n   *************  **   ~~~   **   during Sizing 0 times.\n   *************  **   ~~~   **   Max=-0.183333 [C]  Min=-5.6 [C]\n   *************\n   *************  ** Warning ** CalcDoe2DXCoil: Coil:Cooling:DX:SingleSpeed=\"COIL COOLING DX SINGLE SPEED 5\" - Full load outlet temperature indicates a possibility of frost/freeze error continues. Outlet air temperature statistics follow:\n   *************  **   ~~~   **   This error occurred 2 total times;\n   *************  **   ~~~   **   during Warmup 0 times;\n   *************  **   ~~~   **   during Sizing 0 times.\n   *************  **   ~~~   **   Max=1.96673  Min=1.80805\n   *************\n   *************\n   ************* ===== Final Error Summary =====\n   ************* The following error categories occurred.  Consider correcting or noting.\n   ************* Nominally Unused Constructions\n   ************* ..The nominally unused constructions warning is provided to alert you to potential conditions that can cause\n   ************* ..extra time during simulation. Each construction is calculated by the algorithm indicated in the HeatBalanceAlgorithm\n   ************* ..object. You may remove the constructions indicated (when you use the DisplayExtraWarnings option).\n   *************\n   ************* EnergyPlus Warmup Error Summary. During Warmup: 0 Warning; 0 Severe Errors.\n   ************* EnergyPlus Sizing Error Summary. During Sizing: 9 Warning; 0 Severe Errors.\n   ************* EnergyPlus Completed Successfully-- 4114 Warning; 0 Severe Errors; Elapsed Time=00hr 00min 24.27sec\n",
   "seed_file" : "in.osm",
   "started_at" : "20180206T085742Z",
   "steps" : [
      {
         "arguments" : {},
         "measure_dir_name" : "openstudio_results",
         "result" : {
            "completed_at" : "20180206T085824Z",
            "started_at" : "20180206T085820Z",
            "stderr" : "",
            "stdout" : "",
            "step_errors" : [],
            "step_files" : [
               "/var/simdata/openstudio/OpenStudio-resources/testruns/evaporative_cooling.osm/run/000_openstudio_results/report.html"
            ],
            "step_final_condition" : "Generated report with 21 sections to ./report.html.",
            "step_info" : [],
            "step_initial_condition" : "Gathering data from EnergyPlus SQL file and OSM model.",
            "step_result" : "Success",
            "step_values" : [
               {
                  "name" : "building_summary_section",
                  "value" : true
               },
               {
                  "name" : "annual_overview_section",
                  "value" : true
               },
               {
                  "name" : "monthly_overview_section",
                  "value" : true
               },
               {
                  "name" : "utility_bills_rates_section",
                  "value" : true
               },
               {
                  "name" : "envelope_section_section",
                  "value" : true
               },
               {
                  "name" : "space_type_breakdown_section",
                  "value" : true
               },
               {
                  "name" : "space_type_details_section",
                  "value" : true
               },
               {
                  "name" : "interior_lighting_section",
                  "value" : true
               },
               {
                  "name" : "plug_loads_section",
                  "value" : true
               },
               {
                  "name" : "exterior_light_section",
                  "value" : true
               },
               {
                  "name" : "water_use_section",
                  "value" : true
               },
               {
                  "name" : "hvac_load_profile",
                  "value" : true
               },
               {
                  "name" : "zone_condition_section",
                  "value" : true
               },
               {
                  "name" : "zone_summary_section",
                  "value" : true
               },
               {
                  "name" : "zone_equipment_detail_section",
                  "value" : true
               },
               {
                  "name" : "air_loops_detail_section",
                  "value" : true
               },
               {
                  "name" : "plant_loops_detail_section",
                  "value" : true
               },
               {
                  "name" : "outdoor_air_section",
                  "value" : true
               },
               {
                  "name" : "cost_summary_section",
                  "value" : true
               },
               {
                  "name" : "source_energy_section",
                  "value" : true
               },
               {
                  "name" : "schedules_overview_section",
                  "value" : true
               },
               {
                  "display_name" : "OS:Building 1",
                  "name" : "building_name",
                  "value" : "building_name"
               },
               {
                  "name" : "total_site_energy",
                  "units" : "kBtu",
                  "value" : 7111424.4628548045
               },
               {
                  "name" : "net_site_energy",
                  "units" : "kBtu",
                  "value" : 7111424.4628548045
               },
               {
                  "name" : "total_building_area",
                  "units" : "ft^2",
                  "value" : 107639.10416709722
               },
               {
                  "name" : "total_site_eui",
                  "units" : "kBtu/ft^2",
                  "value" : 66.067295132957838
               },
               {
                  "name" : "eui",
                  "units" : "kBtu/ft^2",
                  "value" : 66.067295132957838
               },
               {
                  "name" : "unmet_hours_during_heating",
                  "units" : "hr",
                  "value" : 0
               },
               {
                  "name" : "unmet_hours_during_cooling",
                  "units" : "hr",
                  "value" : 1.8300000000000001
               },
               {
                  "name" : "unmet_hours_during_occupied_heating",
                  "units" : "hr",
                  "value" : 0
               },
               {
                  "name" : "unmet_hours_during_occupied_cooling",
                  "units" : "hr",
                  "value" : 1.8300000000000001
               },
               {
                  "name" : "unmet_hours_tolerance_heating",
                  "units" : "F",
                  "value" : 0.35999999999999999
               },
               {
                  "name" : "unmet_hours_tolerance_cooling",
                  "units" : "F",
                  "value" : 0.35999999999999999
               },
               {
                  "name" : "end_use_heating",
                  "units" : "kBtu",
                  "value" : 4296123.270388158
               },
               {
                  "name" : "end_use_cooling",
                  "units" : "kBtu",
                  "value" : 247067.48875207242
               },
               {
                  "name" : "end_use_interior_lighting",
                  "units" : "kBtu",
                  "value" : 1044617.6828109163
               },
               {
                  "name" : "end_use_exterior_lighting",
                  "units" : "kBtu",
                  "value" : 0
               },
               {
                  "name" : "end_use_interior_equipment",
                  "units" : "kBtu",
                  "value" : 1044617.6828109163
               },
               {
                  "name" : "end_use_exterior_equipment",
                  "units" : "kBtu",
                  "value" : 0
               },
               {
                  "name" : "end_use_fans",
                  "units" : "kBtu",
                  "value" : 479007.81626394426
               },
               {
                  "name" : "end_use_pumps",
                  "units" : "kBtu",
                  "value" : 0
               },
               {
                  "name" : "end_use_heat_rejection",
                  "units" : "kBtu",
                  "value" : 0
               },
               {
                  "name" : "end_use_humidification",
                  "units" : "kBtu",
                  "value" : 0
               },
               {
                  "name" : "end_use_heat_recovery",
                  "units" : "kBtu",
                  "value" : 0
               },
               {
                  "name" : "end_use_water_systems",
                  "units" : "kBtu",
                  "value" : 0
               },
               {
                  "name" : "end_use_refrigeration",
                  "units" : "kBtu",
                  "value" : 0
               },
               {
                  "name" : "end_use_generators",
                  "units" : "kBtu",
                  "value" : 0
               },
               {
                  "name" : "fuel_electricity",
                  "units" : "kBtu",
                  "value" : 2815301.1924666464
               },
               {
                  "name" : "fuel_natural_gas",
                  "units" : "kBtu",
                  "value" : 4296123.270388158
               },
               {
                  "name" : "fuel_additional_fuel",
                  "units" : "kBtu",
                  "value" : 0
               },
               {
                  "name" : "fuel_district_cooling",
                  "units" : "kBtu",
                  "value" : 0
               },
               {
                  "name" : "fuel_district_heating",
                  "units" : "kBtu",
                  "value" : 0
               },
               {
                  "name" : "end_use_electricity_heating",
                  "units" : "kWh",
                  "value" : 0
               },
               {
                  "name" : "end_use_electricity_cooling",
                  "units" : "kWh",
                  "value" : 72408.333333333343
               },
               {
                  "name" : "end_use_electricity_interior_lighting",
                  "units" : "kWh",
                  "value" : 306147.22222222219
               },
               {
                  "name" : "end_use_electricity_exterior_lighting",
                  "units" : "kWh",
                  "value" : 0
               },
               {
                  "name" : "end_use_electricity_interior_equipment",
                  "units" : "kWh",
                  "value" : 306147.22222222219
               },
               {
                  "name" : "end_use_electricity_exterior_equipment",
                  "units" : "kWh",
                  "value" : 0
               },
               {
                  "name" : "end_use_electricity_fans",
                  "units" : "kWh",
                  "value" : 140383.33333333334
               },
               {
                  "name" : "end_use_electricity_pumps",
                  "units" : "kWh",
                  "value" : 0
               },
               {
                  "name" : "end_use_electricity_heat_rejection",
                  "units" : "kWh",
                  "value" : 0
               },
               {
                  "name" : "end_use_electricity_humidification",
                  "units" : "kWh",
                  "value" : 0
               },
               {
                  "name" : "end_use_electricity_heat_recovery",
                  "units" : "kWh",
                  "value" : 0
               },
               {
                  "name" : "end_use_electricity_water_systems",
                  "units" : "kWh",
                  "value" : 0
               },
               {
                  "name" : "end_use_electricity_refrigeration",
                  "units" : "kWh",
                  "value" : 0
               },
               {
                  "name" : "end_use_electricity_generators",
                  "units" : "kWh",
                  "value" : 0
               },
               {
                  "name" : "end_use_natural_gas_heating",
                  "units" : "therms",
                  "value" : 42969.521999999997
               },
               {
                  "name" : "end_use_natural_gas_cooling",
                  "units" : "therms",
                  "value" : 0
               },
               {
                  "name" : "end_use_natural_gas_interior_lighting",
                  "units" : "therms",
                  "value" : 0
               },
               {
                  "name" : "end_use_natural_gas_exterior_lighting",
                  "units" : "therms",
                  "value" : 0
               },
               {
                  "name" : "end_use_natural_gas_interior_equipment",
                  "units" : "therms",
                  "value" : 0
               },
               {
                  "name" : "end_use_natural_gas_exterior_equipment",
                  "units" : "therms",
                  "value" : 0
               },
               {
                  "name" : "end_use_natural_gas_fans",
                  "units" : "therms",
                  "value" : 0
               },
               {
                  "name" : "end_use_natural_gas_pumps",
                  "units" : "therms",
                  "value" : 0
               },
               {
                  "name" : "end_use_natural_gas_heat_rejection",
                  "units" : "therms",
                  "value" : 0
               },
               {
                  "name" : "end_use_natural_gas_humidification",
                  "units" : "therms",
                  "value" : 0
               },
               {
                  "name" : "end_use_natural_gas_heat_recovery",
                  "units" : "therms",
                  "value" : 0
               },
               {
                  "name" : "end_use_natural_gas_water_systems",
                  "units" : "therms",
                  "value" : 0
               },
               {
                  "name" : "end_use_natural_gas_refrigeration",
                  "units" : "therms",
                  "value" : 0
               },
               {
                  "name" : "end_use_natural_gas_generators",
                  "units" : "therms",
                  "value" : 0
               },
               {
                  "name" : "electricity_heating_ip",
                  "units" : "kWh",
                  "value" : 0
               },
               {
                  "name" : "electricity_cooling_ip",
                  "units" : "kWh",
                  "value" : 72407.606111111105
               },
               {
                  "name" : "electricity_interior_lighting_ip",
                  "units" : "kWh",
                  "value" : 306147.13888888888
               },
               {
                  "name" : "electricity_exterior_lighting_ip",
                  "units" : "kWh",
                  "value" : 0
               },
               {
                  "name" : "electricity_interior_equipment_ip",
                  "units" : "kWh",
                  "value" : 306147.13888888888
               },
               {
                  "name" : "electricity_exterior_equipment_ip",
                  "units" : "kWh",
                  "value" : 0
               },
               {
                  "name" : "electricity_fans_ip",
                  "units" : "kWh",
                  "value" : 140382.19444444444
               },
               {
                  "name" : "electricity_pumps_ip",
                  "units" : "kWh",
                  "value" : 0
               },
               {
                  "name" : "electricity_heat_rejection_ip",
                  "units" : "kWh",
                  "value" : 0
               },
               {
                  "name" : "electricity_humidification_ip",
                  "units" : "kWh",
                  "value" : 0
               },
               {
                  "name" : "electricity_heat_recovery_ip",
                  "units" : "kWh",
                  "value" : 0
               },
               {
                  "name" : "electricity_water_systems_ip",
                  "units" : "kWh",
                  "value" : 0
               },
               {
                  "name" : "electricity_refrigeration_ip",
                  "units" : "kWh",
                  "value" : 0
               },
               {
                  "name" : "electricity_generators_ip",
                  "units" : "kWh",
                  "value" : 0
               },
               {
                  "name" : "electricity_ip",
                  "units" : "kWh",
                  "value" : 825084.07833333337
               },
               {
                  "name" : "natural_gas_heating_ip",
                  "units" : "MBtu",
                  "value" : 4296.1197634648124
               },
               {
                  "name" : "natural_gas_cooling_ip",
                  "units" : "MBtu",
                  "value" : 0
               },
               {
                  "name" : "natural_gas_interior_lighting_ip",
                  "units" : "MBtu",
                  "value" : 0
               },
               {
                  "name" : "natural_gas_exterior_lighting_ip",
                  "units" : "MBtu",
                  "value" : 0
               },
               {
                  "name" : "natural_gas_interior_equipment_ip",
                  "units" : "MBtu",
                  "value" : 0
               },
               {
                  "name" : "natural_gas_exterior_equipment_ip",
                  "units" : "MBtu",
                  "value" : 0
               },
               {
                  "name" : "natural_gas_fans_ip",
                  "units" : "MBtu",
                  "value" : 0
               },
               {
                  "name" : "natural_gas_pumps_ip",
                  "units" : "MBtu",
                  "value" : 0
               },
               {
                  "name" : "natural_gas_heat_rejection_ip",
                  "units" : "MBtu",
                  "value" : 0
               },
               {
                  "name" : "natural_gas_humidification_ip",
                  "units" : "MBtu",
                  "value" : 0
               },
               {
                  "name" : "natural_gas_heat_recovery_ip",
                  "units" : "MBtu",
                  "value" : 0
               },
               {
                  "name" : "natural_gas_water_systems_ip",
                  "units" : "MBtu",
                  "value" : 0
               },
               {
                  "name" : "natural_gas_refrigeration_ip",
                  "units" : "MBtu",
                  "value" : 0
               },
               {
                  "name" : "natural_gas_generators_ip",
                  "units" : "MBtu",
                  "value" : 0
               },
               {
                  "name" : "natural_gas_ip",
                  "units" : "MBtu",
                  "value" : 4296.1197634648124
               },
               {
                  "name" : "additional_fuel_heating_ip",
                  "units" : "MBtu",
                  "value" : 0
               },
               {
                  "name" : "additional_fuel_cooling_ip",
                  "units" : "MBtu",
                  "value" : 0
               },
               {
                  "name" : "additional_fuel_interior_lighting_ip",
                  "units" : "MBtu",
                  "value" : 0
               },
               {
                  "name" : "additional_fuel_exterior_lighting_ip",
                  "units" : "MBtu",
                  "value" : 0
               },
               {
                  "name" : "additional_fuel_interior_equipment_ip",
                  "units" : "MBtu",
                  "value" : 0
               },
               {
                  "name" : "additional_fuel_exterior_equipment_ip",
                  "units" : "MBtu",
                  "value" : 0
               },
               {
                  "name" : "additional_fuel_fans_ip",
                  "units" : "MBtu",
                  "value" : 0
               },
               {
                  "name" : "additional_fuel_pumps_ip",
                  "units" : "MBtu",
                  "value" : 0
               },
               {
                  "name" : "additional_fuel_heat_rejection_ip",
                  "units" : "MBtu",
                  "value" : 0
               },
               {
                  "name" : "additional_fuel_humidification_ip",
                  "units" : "MBtu",
                  "value" : 0
               },
               {
                  "name" : "additional_fuel_heat_recovery_ip",
                  "units" : "MBtu",
                  "value" : 0
               },
               {
                  "name" : "additional_fuel_water_systems_ip",
                  "units" : "MBtu",
                  "value" : 0
               },
               {
                  "name" : "additional_fuel_refrigeration_ip",
                  "units" : "MBtu",
                  "value" : 0
               },
               {
                  "name" : "additional_fuel_generators_ip",
                  "units" : "MBtu",
                  "value" : 0
               },
               {
                  "name" : "additional_fuel_ip",
                  "units" : "MBtu",
                  "value" : 0
               },
               {
                  "name" : "district_cooling_heating_ip",
                  "units" : "MBtu",
                  "value" : 0
               },
               {
                  "name" : "district_cooling_cooling_ip",
                  "units" : "MBtu",
                  "value" : 0
               },
               {
                  "name" : "district_cooling_interior_lighting_ip",
                  "units" : "MBtu",
                  "value" : 0
               },
               {
                  "name" : "district_cooling_exterior_lighting_ip",
                  "units" : "MBtu",
                  "value" : 0
               },
               {
                  "name" : "district_cooling_interior_equipment_ip",
                  "units" : "MBtu",
                  "value" : 0
               },
               {
                  "name" : "district_cooling_exterior_equipment_ip",
                  "units" : "MBtu",
                  "value" : 0
               },
               {
                  "name" : "district_cooling_fans_ip",
                  "units" : "MBtu",
                  "value" : 0
               },
               {
                  "name" : "district_cooling_pumps_ip",
                  "units" : "MBtu",
                  "value" : 0
               },
               {
                  "name" : "district_cooling_heat_rejection_ip",
                  "units" : "MBtu",
                  "value" : 0
               },
               {
                  "name" : "district_cooling_humidification_ip",
                  "units" : "MBtu",
                  "value" : 0
               },
               {
                  "name" : "district_cooling_heat_recovery_ip",
                  "units" : "MBtu",
                  "value" : 0
               },
               {
                  "name" : "district_cooling_water_systems_ip",
                  "units" : "MBtu",
                  "value" : 0
               },
               {
                  "name" : "district_cooling_refrigeration_ip",
                  "units" : "MBtu",
                  "value" : 0
               },
               {
                  "name" : "district_cooling_generators_ip",
                  "units" : "MBtu",
                  "value" : 0
               },
               {
                  "name" : "district_cooling_ip",
                  "units" : "MBtu",
                  "value" : 0
               },
               {
                  "name" : "district_heating_heating_ip",
                  "units" : "MBtu",
                  "value" : 0
               },
               {
                  "name" : "district_heating_cooling_ip",
                  "units" : "MBtu",
                  "value" : 0
               },
               {
                  "name" : "district_heating_interior_lighting_ip",
                  "units" : "MBtu",
                  "value" : 0
               },
               {
                  "name" : "district_heating_exterior_lighting_ip",
                  "units" : "MBtu",
                  "value" : 0
               },
               {
                  "name" : "district_heating_interior_equipment_ip",
                  "units" : "MBtu",
                  "value" : 0
               },
               {
                  "name" : "district_heating_exterior_equipment_ip",
                  "units" : "MBtu",
                  "value" : 0
               },
               {
                  "name" : "district_heating_fans_ip",
                  "units" : "MBtu",
                  "value" : 0
               },
               {
                  "name" : "district_heating_pumps_ip",
                  "units" : "MBtu",
                  "value" : 0
               },
               {
                  "name" : "district_heating_heat_rejection_ip",
                  "units" : "MBtu",
                  "value" : 0
               },
               {
                  "name" : "district_heating_humidification_ip",
                  "units" : "MBtu",
                  "value" : 0
               },
               {
                  "name" : "district_heating_heat_recovery_ip",
                  "units" : "MBtu",
                  "value" : 0
               },
               {
                  "name" : "district_heating_water_systems_ip",
                  "units" : "MBtu",
                  "value" : 0
               },
               {
                  "name" : "district_heating_refrigeration_ip",
                  "units" : "MBtu",
                  "value" : 0
               },
               {
                  "name" : "district_heating_generators_ip",
                  "units" : "MBtu",
                  "value" : 0
               },
               {
                  "name" : "district_heating_ip",
                  "units" : "MBtu",
                  "value" : 0
               },
               {
                  "name" : "water_heating_ip",
                  "units" : "MBtu",
                  "value" : 0
               },
               {
                  "name" : "water_cooling_ip",
                  "units" : "MBtu",
                  "value" : 0
               },
               {
                  "name" : "water_interior_lighting_ip",
                  "units" : "MBtu",
                  "value" : 0
               },
               {
                  "name" : "water_exterior_lighting_ip",
                  "units" : "MBtu",
                  "value" : 0
               },
               {
                  "name" : "water_interior_equipment_ip",
                  "units" : "MBtu",
                  "value" : 0
               },
               {
                  "name" : "water_exterior_equipment_ip",
                  "units" : "MBtu",
                  "value" : 0
               },
               {
                  "name" : "water_fans_ip",
                  "units" : "MBtu",
                  "value" : 0
               },
               {
                  "name" : "water_pumps_ip",
                  "units" : "MBtu",
                  "value" : 0
               },
               {
                  "name" : "water_heat_rejection_ip",
                  "units" : "MBtu",
                  "value" : 0
               },
               {
                  "name" : "water_humidification_ip",
                  "units" : "MBtu",
                  "value" : 0
               },
               {
                  "name" : "water_heat_recovery_ip",
                  "units" : "MBtu",
                  "value" : 0
               },
               {
                  "name" : "water_water_systems_ip",
                  "units" : "MBtu",
                  "value" : 0
               },
               {
                  "name" : "water_refrigeration_ip",
                  "units" : "MBtu",
                  "value" : 0
               },
               {
                  "name" : "water_generators_ip",
                  "units" : "MBtu",
                  "value" : 0
               },
               {
                  "name" : "water_ip",
                  "units" : "MBtu",
                  "value" : 0
               },
               {
                  "name" : "ashrae_189_1_2009_ext_roof_iead_climate_zone_2_5",
                  "units" : "ft^2",
                  "value" : 53819.55208354861
               },
               {
                  "name" : "ashrae_189_1_2009_ext_wall_steel_frame_climate_zone_4_8",
                  "units" : "ft^2",
                  "value" : 15500.03100006201
               },
               {
                  "name" : "ashrae_189_1_2009_ext_window_climate_zone_4_5",
                  "units" : "ft^2",
                  "value" : 10333.354000041323
               },
               {
                  "name" : "gross_window_wall_ratio",
                  "units" : "%",
                  "value" : 40
               },
               {
                  "name" : "gross_window_wall_ratio_conditioned",
                  "units" : "%",
                  "value" : 40
               },
               {
                  "name" : "skylight_roof_ratio",
                  "units" : "%",
                  "value" : 0
               },
               {
                  "name" : "space_type_baseline_model_space_type",
                  "units" : "ft^2",
                  "value" : 107639.10416709722
               },
               {
                  "name" : "exterior_lighting_total_power",
                  "units" : "W",
                  "value" : 0
               },
               {
                  "name" : "exterior_lighting_total_consumption",
                  "units" : "kWh",
                  "value" : 2084152.7777777778
               },
               {
                  "name" : "inflation_approach",
                  "value" : "Constant Dollar"
               },
               {
                  "name" : "analysis_length",
                  "units" : "yrs",
                  "value" : 25
               },
               {
                  "name" : "annual_peak_electric_demand",
                  "units" : "kW",
                  "value" : 353.33803999999998
               },
               {
                  "name" : "first_year_capital_cost",
                  "units" : "$",
                  "value" : 0
               },
               {
                  "name" : "annual_utility_cost",
                  "units" : "$",
                  "value" : 0
               },
               {
                  "name" : "total_lifecycle_cost",
                  "units" : "$",
                  "value" : 0
               }
            ],
            "step_warnings" : []
         }
      }
   ],
   "updated_at" : "20180206T085826Z",
   "weather_file" : "../../weatherdata/USA_IL_Chicago-OHare.Intl.AP.725300_TMY3.epw"
}
