{
  "completed_status": "Fail",
  "current_step": 0,
  "eplusout_err": [
    "Program Version,EnergyPlus, Version 24.2.0-e7ecb2d53b, ",
    "   ************* Beginning Zone Sizing Calculations",
    "   ** Warning ** ProcessScheduleInput: Schedule:Day:Interval=\"SCHEDULE DAY 2\", Blank Schedule Type Limits Name input -- will not be validated.",
    "   ** Warning ** ProcessScheduleInput: Schedule:Day:Interval=\"SCHEDULE DAY 3\", Blank Schedule Type Limits Name input -- will not be validated.",
    "   ** Warning ** ProcessScheduleInput: Schedule:Day:Interval=\"SCHEDULE DAY 4\", Blank Schedule Type Limits Name input -- will not be validated.",
    "   ** Warning ** ProcessScheduleInput: Schedule:Day:Interval=\"SCHEDULE DAY 5\", Blank Schedule Type Limits Name input -- will not be validated.",
    "   ** Warning ** ProcessScheduleInput: Schedule:Day:Interval=\"SCHEDULE DAY 6\", Blank Schedule Type Limits Name input -- will not be validated.",
    "   ** Warning ** ProcessScheduleInput: Schedule:Day:Interval=\"SCHEDULE DAY 7\", Blank Schedule Type Limits Name input -- will not be validated.",
    "   ** Severe  ** Did not find matching material for Foundation:Kiva=\"FOUNDATION KIVA 1\", Custom Block Material Name, missing material = MATERIAL 1",
    "   ** Severe  ** Did not find matching material for Foundation:Kiva=\"FOUNDATION KIVA 1\", Custom Block Material Name, missing material = MATERIAL 1",
    "   ** Severe  ** Did not find matching material for Foundation:Kiva=\"FOUNDATION KIVA 1\", Custom Block Material Name, missing material = MATERIAL 1",
    "   ** Severe  ** Did not find matching material for Foundation:Kiva=\"FOUNDATION KIVA 1\", Custom Block Material Name, missing material = MATERIAL 1",
    "   ** Severe  ** Did not find matching material for Foundation:Kiva=\"FOUNDATION KIVA 1\", Custom Block Material Name, missing material = MATERIAL 1",
    "   ** Severe  ** Did not find matching material for Foundation:Kiva=\"FOUNDATION KIVA 1\", Custom Block Material Name, missing material = MATERIAL 1",
    "   **  Fatal  ** GetSurfaceData: Errors discovered, program terminates.",
    "   ...Summary of Errors that led to program termination:",
    "   ..... Reference severe error count=6",
    "   ..... Last severe error=Did not find matching material for Foundation:Kiva=\"FOUNDATION KIVA 1\", Custom Block Material Name, missing material = MATERIAL 1",
    "   ************* Warning:  Node connection errors not checked - most system input has not been read (see previous warning).",
    "   ************* Fatal error -- final processing.  Program exited before simulations began.  See previous error messages.",
    "   ************* EnergyPlus Warmup Error Summary. During Warmup: 0 Warning; 0 Severe Errors.",
    "   ************* EnergyPlus Sizing Error Summary. During Sizing: 6 Warning; 6 Severe Errors.",
    "   ************* EnergyPlus Terminated--Fatal Error Detected. 6 Warning; 6 Severe Errors; "
  ],
  "file_paths": [
    "/home/runner/work/OpenStudio-resources/OpenStudio-resources/testruns/foundation_kiva_customblocks.rb/generated_files",
    "./files",
    "./weather",
    "../../files",
    "../../weather",
    "./"
  ],
  "run_options": null,
  "seed_file": "in.osm",
  "steps": [
    {
      "arguments": {
      },
      "measure_dir_name": "openstudio_results"
    }
  ],
  "weather_file": "../../weatherdata/USA_IL_Chicago-OHare.Intl.AP.725300_TMY3.epw"
}