{
   "completed_at" : "20180205T175427Z",
   "completed_status" : "Fail",
   "current_step" : 0,
   "eplusout_err" : "Program Version,EnergyPlus, Version 8.7.0-78a111df4a, YMD=2018.02.05 17:54,IDD_Version 8.7.0\n   ************* Beginning Zone Sizing Calculations\n",
   "hash" : "5DADB0D4",
   "seed_file" : "in.osm",
   "started_at" : "20180205T175416Z",
   "steps" : [
      {
         "arguments" : {},
         "measure_dir_name" : "openstudio_results"
      }
   ],
   "updated_at" : "20180205T175427Z",
   "weather_file" : "../../weatherdata/USA_IL_Chicago-OHare.Intl.AP.725300_TMY3.epw"
}
