{
   "completed_at" : "20180205T170112Z",
   "completed_status" : "Fail",
   "current_step" : 0,
   "eplusout_err" : "Program Version,EnergyPlus, Version 8.7.0-ae053cab77, YMD=2018.02.05 17:01,IDD_Version 8.7.0\n   ************* Beginning Zone Sizing Calculations\n   ** Warning ** ProcessScheduleInput: Schedule:Day:Interval=\"SCHEDULE DAY 10\", Blank Schedule Type Limits Name input -- will not be validated.\n   ** Warning ** ProcessScheduleInput: Schedule:Day:Interval=\"SCHEDULE DAY 11\", Blank Schedule Type Limits Name input -- will not be validated.\n   ** Warning ** ProcessScheduleInput: Schedule:Day:Interval=\"SCHEDULE DAY 12\", Blank Schedule Type Limits Name input -- will not be validated.\n   ** Warning ** ProcessScheduleInput: Schedule:Day:Interval=\"SCHEDULE DAY 13\", Blank Schedule Type Limits Name input -- will not be validated.\n   ** Warning ** ProcessScheduleInput: Schedule:Constant=\"ALWAYS OFF DISCRETE\", Blank Schedule Type Limits Name input -- will not be validated.\n   ** Warning ** ProcessScheduleInput: Schedule:Constant=\"ALWAYS ON CONTINUOUS\", Blank Schedule Type Limits Name input -- will not be validated.\n   ** Warning ** GetHTSurfaceData: Surfaces with interface to Ground found but no \"Ground Temperatures\" were input.\n   **   ~~~   ** Found first in surface=SURFACE 25\n   **   ~~~   ** Defaults, constant throughout the year of (18.0) will be used.\n   ** Warning ** CheckUsedConstructions: There are 8 nominally unused constructions in input.\n   **   ~~~   ** For explicit details on each unused construction, use Output:Diagnostics,DisplayExtraWarnings;\n   ** Warning ** WaterHeater:Stratified = WATER HEATER STRATIFIED 1:  More Additional Loss Coefficients were entered than the number of nodes; extra coefficients will not be used\n   ** Severe  ** WaterHeater:Stratified = WATER HEATER STRATIFIED 1 has a source inlet or outlet node specified,\n   **   ~~~   ** but it is attached to WaterHeater:HeatPump:WrappedCondenser = WATER HEATER HEAT PUMP WRAPPED CONDENSER 1, which doesn't permit source side connections.\n   **   ~~~   ** Please leave the source side inlet and outlet fields blank.\n   ** Severe  ** WaterHeater:HeatPump:WrappedCondenser = WATER HEATER HEAT PUMP WRAPPED CONDENSER 1:\n   **   ~~~   ** Heat Pump condenser water inlet node name does not match water heater tank source outlet node name.\n   **   ~~~   ** Heat pump condenser water inlet and outlet node names = DUMMY CONDENSER INLET COIL WATER HEATING AIR TO WATER HEAT PUMP WRAPPED 1 and DUMMY CONDENSER OUTLET COIL WATER HEATING AIR TO WATER HEAT PUMP WRAPPED 1\n   **   ~~~   ** Water heater tank source side inlet and outlet node names      = WATER HEATER HEAT PUMP WRAPPED CONDENSER 1 CONDENSER OUTLET - TANK INLET and WATER HEATER HEAT PUMP WRAPPED CONDENSER 1 TANK OUTLET - CONDENSER INLET\n   ** Severe  ** WaterHeater:HeatPump:WrappedCondenser = WATER HEATER HEAT PUMP WRAPPED CONDENSER 1:\n   **   ~~~   ** Heat Pump condenser water outlet node name does not match water heater tank source inlet node name.\n   **   ~~~   ** Heat pump condenser water inlet and outlet node names = DUMMY CONDENSER INLET COIL WATER HEATING AIR TO WATER HEAT PUMP WRAPPED 1 and DUMMY CONDENSER OUTLET COIL WATER HEATING AIR TO WATER HEAT PUMP WRAPPED 1\n   **   ~~~   ** Water heater tank source side inlet and outlet node names      = WATER HEATER HEAT PUMP WRAPPED CONDENSER 1 CONDENSER OUTLET - TANK INLET and WATER HEATER HEAT PUMP WRAPPED CONDENSER 1 TANK OUTLET - CONDENSER INLET\n   **  Fatal  ** GetWaterThermalTankInput: Errors found in getting thermal storage input. Preceding condition(s) causes termination.\n   ...Summary of Errors that led to program termination:\n   ..... Reference severe error count=3\n   ..... Last severe error=WaterHeater:HeatPump:WrappedCondenser = WATER HEATER HEAT PUMP WRAPPED CONDENSER 1:\n   ************* Warning:  Node connection errors not checked - most system input has not been read (see previous warning).\n   ************* Fatal error -- final processing.  Program exited before simulations began.  See previous error messages.\n   *************\n   ************* ===== Final Error Summary =====\n   ************* The following error categories occurred.  Consider correcting or noting.\n   ************* Nominally Unused Constructions\n   ************* ..The nominally unused constructions warning is provided to alert you to potential conditions that can cause\n   ************* ..extra time during simulation. Each construction is calculated by the algorithm indicated in the HeatBalanceAlgorithm\n   ************* ..object. You may remove the constructions indicated (when you use the DisplayExtraWarnings option).\n   *************\n   ************* EnergyPlus Warmup Error Summary. During Warmup: 0 Warning; 0 Severe Errors.\n   ************* EnergyPlus Sizing Error Summary. During Sizing: 9 Warning; 3 Severe Errors.\n   ************* EnergyPlus Terminated--Fatal Error Detected. 9 Warning; 3 Severe Errors; Elapsed Time=00hr 00min  0.34sec\n",
   "hash" : "AD5911A6",
   "seed_file" : "in.osm",
   "started_at" : "20180205T170101Z",
   "steps" : [
      {
         "arguments" : {},
         "measure_dir_name" : "openstudio_results"
      }
   ],
   "updated_at" : "20180205T170112Z",
   "weather_file" : "../../weatherdata/USA_IL_Chicago-OHare.Intl.AP.725300_TMY3.epw"
}
