{
   "completed_at" : "20180205T213201Z",
   "completed_status" : "Success",
   "current_step" : 1,
   "eplusout_err" : "Program Version,EnergyPlus, Version 8.8.0-7c3bbe4830, YMD=2018.02.05 21:30,IDD_Version 8.8.0\n   ************* Beginning Zone Sizing Calculations\n   ** Warning ** ProcessScheduleInput: Schedule:Day:Interval=\"SCHEDULE DAY 10\", Blank Schedule Type Limits Name input -- will not be validated.\n   ** Warning ** ProcessScheduleInput: Schedule:Day:Interval=\"SCHEDULE DAY 11\", Blank Schedule Type Limits Name input -- will not be validated.\n   ** Warning ** ProcessScheduleInput: Schedule:Day:Interval=\"SCHEDULE DAY 12\", Blank Schedule Type Limits Name input -- will not be validated.\n   ** Warning ** ProcessScheduleInput: Schedule:Day:Interval=\"SCHEDULE DAY 13\", Blank Schedule Type Limits Name input -- will not be validated.\n   ** Warning ** ProcessScheduleInput: Schedule:Constant=\"ALWAYS OFF DISCRETE\", Blank Schedule Type Limits Name input -- will not be validated.\n   ** Warning ** ProcessScheduleInput: Schedule:Constant=\"ALWAYS ON CONTINUOUS\", Blank Schedule Type Limits Name input -- will not be validated.\n   ** Warning ** GetHTSurfaceData: Surfaces with interface to Ground found but no \"Ground Temperatures\" were input.\n   **   ~~~   ** Found first in surface=SURFACE 25\n   **   ~~~   ** Defaults, constant throughout the year of (18.0) will be used.\n   ** Warning ** CheckUsedConstructions: There are 8 nominally unused constructions in input.\n   **   ~~~   ** For explicit details on each unused construction, use Output:Diagnostics,DisplayExtraWarnings;\n   ** Warning ** WaterHeater:Stratified = WATER HEATER STRATIFIED 1:  More Additional Loss Coefficients were entered than the number of nodes; extra coefficients will not be used\n   ************* Beginning System Sizing Calculations\n   ************* Beginning Plant Sizing Calculations\n   ** Warning ** SizePlantLoop: Calculated Plant Sizing Design Volume Flow Rate=[0.00] is too small. Set to 0.0\n   **   ~~~   ** ..occurs for PlantLoop=PLANT LOOP 1\n   ** Warning ** SizePump: Calculated Pump Nominal Volume Flow Rate=[0.00] is too small. Set to 0.0\n   **   ~~~   ** ..occurs for Pump=PUMP CONSTANT SPEED 1\n   ** Warning ** Check input. Pump nominal power or motor efficiency is set to 0, for pump=PUMP CONSTANT SPEED 1\n   ** Warning ** Check input. Pump nominal flow rate is set or calculated = 0, for pump=PUMP CONSTANT SPEED 1\n   ** Warning ** Output:Meter: invalid Key Name=\"DISTRICTCOOLING:FACILITY\" - not found.\n   ** Warning ** Output:Meter: invalid Key Name=\"DISTRICTHEATING:FACILITY\" - not found.\n   ** Warning ** Output:Meter:MeterFileOnly requested for \"Electricity:Facility\" (TimeStep), already on \"Output:Meter\". Will report to both eplusout.eso and eplusout.mtr\n   ************* Testing Individual Branch Integrity\n   ************* All Branches passed integrity testing\n   ************* Testing Individual Supply Air Path Integrity\n   ************* All Supply Air Paths passed integrity testing\n   ************* Testing Individual Return Air Path Integrity\n   ************* All Return Air Paths passed integrity testing\n   ************* No node connection errors were found.\n   ************* Beginning Simulation\n   ** Warning ** Processing Monthly Tabular Reports: Variable names not valid for this simulation\n   **   ~~~   ** ...use Output:Diagnostics,DisplayExtraWarnings; to show more details on individual variables.\n   ** Warning ** CalcDoe2DXCoil: Coil:Cooling:DX:SingleSpeed \"COIL COOLING DX SINGLE SPEED 4\" - Air-cooled condenser inlet dry-bulb temperature below 0 C. Outdoor dry-bulb temperature = -6.28\n   **   ~~~   **  ... Occurrence info = RUN PERIOD 1, 01/01 10:00 - 10:15\n   **   ~~~   ** ... Operation at low ambient temperatures may require special performance curves.\n   ** Warning ** CalcDoe2DXCoil: Coil:Cooling:DX:SingleSpeed \"COIL COOLING DX SINGLE SPEED 4\" - Full load outlet air dry-bulb temperature < 2C. This indicates the possibility of coil frost/freeze. Outlet temperature = -2.33 C.\n   **   ~~~   **  ...Occurrence info = RUN PERIOD 1, 01/01 10:00 - 10:15\n   **   ~~~   ** ... Possible reasons for low outlet air dry-bulb temperatures are: This DX coil\n   **   ~~~   **    1) may have a low inlet air dry-bulb temperature. Inlet air temperature = 22.125 C.\n   **   ~~~   **    2) may have a low air flow rate per watt of cooling capacity. Check inputs.\n   **   ~~~   **    3) is used as part of a HX assisted cooling coil which uses a high sensible effectiveness. Check inputs.\n   ** Warning ** CalcDoe2DXCoil: Coil:Cooling:DX:SingleSpeed \"COIL COOLING DX SINGLE SPEED 1\" - Air-cooled condenser inlet dry-bulb temperature below 0 C. Outdoor dry-bulb temperature = -2.93\n   **   ~~~   **  ... Occurrence info = RUN PERIOD 1, 01/14 14:30 - 14:45\n   **   ~~~   ** ... Operation at low ambient temperatures may require special performance curves.\n   ** Warning ** CalcDoe2DXCoil: Coil:Cooling:DX:SingleSpeed \"COIL COOLING DX SINGLE SPEED 1\" - Full load outlet air dry-bulb temperature < 2C. This indicates the possibility of coil frost/freeze. Outlet temperature = -2.06 C.\n   **   ~~~   **  ...Occurrence info = RUN PERIOD 1, 01/14 14:30 - 14:45\n   **   ~~~   ** ... Possible reasons for low outlet air dry-bulb temperatures are: This DX coil\n   **   ~~~   **    1) may have a low inlet air dry-bulb temperature. Inlet air temperature = 22.352 C.\n   **   ~~~   **    2) may have a low air flow rate per watt of cooling capacity. Check inputs.\n   **   ~~~   **    3) is used as part of a HX assisted cooling coil which uses a high sensible effectiveness. Check inputs.\n   ** Warning ** CalcDoe2DXCoil: Coil:Cooling:DX:SingleSpeed \"COIL COOLING DX SINGLE SPEED 3\" - Full load outlet air dry-bulb temperature < 2C. This indicates the possibility of coil frost/freeze. Outlet temperature = -6.14E-002 C.\n   **   ~~~   **  ...Occurrence info = RUN PERIOD 1, 01/17 09:08 - 09:15\n   **   ~~~   ** ... Possible reasons for low outlet air dry-bulb temperatures are: This DX coil\n   **   ~~~   **    1) may have a low inlet air dry-bulb temperature. Inlet air temperature = 22.856 C.\n   **   ~~~   **    2) may have a low air flow rate per watt of cooling capacity. Check inputs.\n   **   ~~~   **    3) is used as part of a HX assisted cooling coil which uses a high sensible effectiveness. Check inputs.\n   ** Warning ** CalcDoe2DXCoil: Coil:Cooling:DX:SingleSpeed \"COIL COOLING DX SINGLE SPEED 5\" - Full load outlet air dry-bulb temperature < 2C. This indicates the possibility of coil frost/freeze. Outlet temperature = -0.14 C.\n   **   ~~~   **  ...Occurrence info = RUN PERIOD 1, 01/21 13:08 - 13:15\n   **   ~~~   ** ... Possible reasons for low outlet air dry-bulb temperatures are: This DX coil\n   **   ~~~   **    1) may have a low inlet air dry-bulb temperature. Inlet air temperature = 20.928 C.\n   **   ~~~   **    2) may have a low air flow rate per watt of cooling capacity. Check inputs.\n   **   ~~~   **    3) is used as part of a HX assisted cooling coil which uses a high sensible effectiveness. Check inputs.\n   ** Warning ** CalcDoe2DXCoil: Coil:Cooling:DX:SingleSpeed \"COIL COOLING DX SINGLE SPEED 3\" - Air-cooled condenser inlet dry-bulb temperature below 0 C. Outdoor dry-bulb temperature = -6.15\n   **   ~~~   **  ... Occurrence info = RUN PERIOD 1, 02/20 08:30 - 08:45\n   **   ~~~   ** ... Operation at low ambient temperatures may require special performance curves.\n   ** Warning ** CalcDoe2DXCoil: Coil:Cooling:DX:SingleSpeed \"COIL COOLING DX SINGLE SPEED 2\" - Full load outlet air dry-bulb temperature < 2C. This indicates the possibility of coil frost/freeze. Outlet temperature = 0.38 C.\n   **   ~~~   **  ...Occurrence info = RUN PERIOD 1, 03/10 10:30 - 10:45\n   **   ~~~   ** ... Possible reasons for low outlet air dry-bulb temperatures are: This DX coil\n   **   ~~~   **    1) may have a low inlet air dry-bulb temperature. Inlet air temperature = 23.585 C.\n   **   ~~~   **    2) may have a low air flow rate per watt of cooling capacity. Check inputs.\n   **   ~~~   **    3) is used as part of a HX assisted cooling coil which uses a high sensible effectiveness. Check inputs.\n   ** Warning ** The resource referenced by LifeCycleCost:UsePriceEscalation= \"U.S. AVG  COMMERCIAL-ELECTRICITY\" has no energy cost. \n   **   ~~~   ** ... It is likely that the wrong resource is used. The resource should match the meter used in Utility:Tariff.\n   ** Warning ** The resource referenced by LifeCycleCost:UsePriceEscalation= \"U.S. AVG  COMMERCIAL-DISTILLATE OIL\" has no energy cost. \n   **   ~~~   ** ... It is likely that the wrong resource is used. The resource should match the meter used in Utility:Tariff.\n   ** Warning ** The resource referenced by LifeCycleCost:UsePriceEscalation= \"U.S. AVG  COMMERCIAL-RESIDUAL OIL\" has no energy cost. \n   **   ~~~   ** ... It is likely that the wrong resource is used. The resource should match the meter used in Utility:Tariff.\n   ** Warning ** The resource referenced by LifeCycleCost:UsePriceEscalation= \"U.S. AVG  COMMERCIAL-NATURAL GAS\" has no energy cost. \n   **   ~~~   ** ... It is likely that the wrong resource is used. The resource should match the meter used in Utility:Tariff.\n   ** Warning ** The resource referenced by LifeCycleCost:UsePriceEscalation= \"U.S. AVG  COMMERCIAL-COAL\" has no energy cost. \n   **   ~~~   ** ... It is likely that the wrong resource is used. The resource should match the meter used in Utility:Tariff.\n   ************* Simulation Error Summary *************\n   ************* There are 6 unused schedules in input.\n   ************* There are 6 unused week schedules in input.\n   ************* There are 10 unused day schedules in input.\n   ************* Use Output:Diagnostics,DisplayUnusedSchedules; to see them.\n   *************\n   ************* ===== Recurring Error Summary =====\n   ************* The following recurring error messages occurred.\n   *************\n   *************  ** Warning ** CalcDoe2DXCoil: Coil:Cooling:DX:SingleSpeed=\"COIL COOLING DX SINGLE SPEED 4\" - Low condenser dry-bulb temperature error continues...\n   *************  **   ~~~   **   This error occurred 409 total times;\n   *************  **   ~~~   **   during Warmup 0 times;\n   *************  **   ~~~   **   during Sizing 0 times.\n   *************  **   ~~~   **   Max=-2.500000E-002 [C]  Min=-16.7 [C]\n   *************\n   *************  ** Warning ** CalcDoe2DXCoil: Coil:Cooling:DX:SingleSpeed=\"COIL COOLING DX SINGLE SPEED 4\" - Full load outlet temperature indicates a possibility of frost/freeze error continues. Outlet air temperature statistics follow:\n   *************  **   ~~~   **   This error occurred 1280 total times;\n   *************  **   ~~~   **   during Warmup 0 times;\n   *************  **   ~~~   **   during Sizing 0 times.\n   *************  **   ~~~   **   Max=1.997757  Min=-3.029913\n   *************\n   *************  ** Warning ** CalcDoe2DXCoil: Coil:Cooling:DX:SingleSpeed=\"COIL COOLING DX SINGLE SPEED 1\" - Low condenser dry-bulb temperature error continues...\n   *************  **   ~~~   **   This error occurred 28 total times;\n   *************  **   ~~~   **   during Warmup 0 times;\n   *************  **   ~~~   **   during Sizing 0 times.\n   *************  **   ~~~   **   Max=-0.1 [C]  Min=-5.25 [C]\n   *************\n   *************  ** Warning ** CalcDoe2DXCoil: Coil:Cooling:DX:SingleSpeed=\"COIL COOLING DX SINGLE SPEED 1\" - Full load outlet temperature indicates a possibility of frost/freeze error continues. Outlet air temperature statistics follow:\n   *************  **   ~~~   **   This error occurred 497 total times;\n   *************  **   ~~~   **   during Warmup 0 times;\n   *************  **   ~~~   **   during Sizing 0 times.\n   *************  **   ~~~   **   Max=1.99432  Min=-2.100761\n   *************\n   *************  ** Warning ** CalcDoe2DXCoil: Coil:Cooling:DX:SingleSpeed=\"COIL COOLING DX SINGLE SPEED 3\" - Full load outlet temperature indicates a possibility of frost/freeze error continues. Outlet air temperature statistics follow:\n   *************  **   ~~~   **   This error occurred 478 total times;\n   *************  **   ~~~   **   during Warmup 0 times;\n   *************  **   ~~~   **   during Sizing 0 times.\n   *************  **   ~~~   **   Max=1.997184  Min=-2.330891\n   *************\n   *************  ** Warning ** CalcDoe2DXCoil: Coil:Cooling:DX:SingleSpeed=\"COIL COOLING DX SINGLE SPEED 5\" - Full load outlet temperature indicates a possibility of frost/freeze error continues. Outlet air temperature statistics follow:\n   *************  **   ~~~   **   This error occurred 255 total times;\n   *************  **   ~~~   **   during Warmup 0 times;\n   *************  **   ~~~   **   during Sizing 0 times.\n   *************  **   ~~~   **   Max=1.987208  Min=-3.382728\n   *************\n   *************  ** Warning ** CalcDoe2DXCoil: Coil:Cooling:DX:SingleSpeed=\"COIL COOLING DX SINGLE SPEED 3\" - Low condenser dry-bulb temperature error continues...\n   *************  **   ~~~   **   This error occurred 18 total times;\n   *************  **   ~~~   **   during Warmup 0 times;\n   *************  **   ~~~   **   during Sizing 0 times.\n   *************  **   ~~~   **   Max=-2.500000E-002 [C]  Min=-6.15 [C]\n   *************\n   *************  ** Warning ** CalcDoe2DXCoil: Coil:Cooling:DX:SingleSpeed=\"COIL COOLING DX SINGLE SPEED 2\" - Full load outlet temperature indicates a possibility of frost/freeze error continues. Outlet air temperature statistics follow:\n   *************  **   ~~~   **   This error occurred 97 total times;\n   *************  **   ~~~   **   during Warmup 0 times;\n   *************  **   ~~~   **   during Sizing 0 times.\n   *************  **   ~~~   **   Max=1.994459  Min=-0.371155\n   *************\n   *************\n   ************* ===== Final Error Summary =====\n   ************* The following error categories occurred.  Consider correcting or noting.\n   ************* Nominally Unused Constructions\n   ************* ..The nominally unused constructions warning is provided to alert you to potential conditions that can cause\n   ************* ..extra time during simulation. Each construction is calculated by the algorithm indicated in the HeatBalanceAlgorithm\n   ************* ..object. You may remove the constructions indicated (when you use the DisplayExtraWarnings option).\n   *************\n   ************* EnergyPlus Warmup Error Summary. During Warmup: 0 Warning; 0 Severe Errors.\n   ************* EnergyPlus Sizing Error Summary. During Sizing: 9 Warning; 0 Severe Errors.\n   ************* EnergyPlus Completed Successfully-- 3084 Warning; 0 Severe Errors; Elapsed Time=00hr 01min  7.11sec\n",
   "hash" : "0DEFBC41",
   "seed_file" : "in.osm",
   "started_at" : "20180205T213035Z",
   "steps" : [
      {
         "arguments" : {},
         "measure_dir_name" : "openstudio_results",
         "result" : {
            "completed_at" : "20180205T213158Z",
            "measure_class_name" : "OpenStudioResults",
            "measure_display_name" : "OpenStudio Results",
            "measure_name" : "openstudio_results",
            "measure_taxonomy" : "Reporting.QAQC",
            "measure_type" : "ReportingMeasure",
            "measure_uid" : "a25386cd-60e4-46bc-8b11-c755f379d916",
            "measure_version_id" : "5b8e57e8-830a-43ae-90d4-a41d97698d95",
            "measure_version_modified" : "20171219T161835Z",
            "measure_xml_checksum" : "557BF06F",
            "started_at" : "20180205T213154Z",
            "stderr" : "",
            "stdout" : "",
            "step_errors" : [],
            "step_files" : [
               "/var/simdata/openstudio/OpenStudio-resources/testruns/heatpump_hot_water.rb/run/000_openstudio_results/report.html"
            ],
            "step_final_condition" : "Generated report with 21 sections to ./report.html.",
            "step_info" : [],
            "step_initial_condition" : "Gathering data from EnergyPlus SQL file and OSM model.",
            "step_result" : "Success",
            "step_values" : [
               {
                  "name" : "building_summary_section",
                  "value" : true
               },
               {
                  "name" : "annual_overview_section",
                  "value" : true
               },
               {
                  "name" : "monthly_overview_section",
                  "value" : true
               },
               {
                  "name" : "utility_bills_rates_section",
                  "value" : true
               },
               {
                  "name" : "envelope_section_section",
                  "value" : true
               },
               {
                  "name" : "space_type_breakdown_section",
                  "value" : true
               },
               {
                  "name" : "space_type_details_section",
                  "value" : true
               },
               {
                  "name" : "interior_lighting_section",
                  "value" : true
               },
               {
                  "name" : "plug_loads_section",
                  "value" : true
               },
               {
                  "name" : "exterior_light_section",
                  "value" : true
               },
               {
                  "name" : "water_use_section",
                  "value" : true
               },
               {
                  "name" : "hvac_load_profile",
                  "value" : true
               },
               {
                  "name" : "zone_condition_section",
                  "value" : true
               },
               {
                  "name" : "zone_summary_section",
                  "value" : true
               },
               {
                  "name" : "zone_equipment_detail_section",
                  "value" : true
               },
               {
                  "name" : "air_loops_detail_section",
                  "value" : true
               },
               {
                  "name" : "plant_loops_detail_section",
                  "value" : true
               },
               {
                  "name" : "outdoor_air_section",
                  "value" : true
               },
               {
                  "name" : "cost_summary_section",
                  "value" : true
               },
               {
                  "name" : "source_energy_section",
                  "value" : true
               },
               {
                  "name" : "schedules_overview_section",
                  "value" : true
               },
               {
                  "display_name" : "Building 1",
                  "name" : "building_name",
                  "value" : "building_name"
               },
               {
                  "name" : "total_site_energy",
                  "units" : "kBtu",
                  "value" : 4528850.2861098889
               },
               {
                  "name" : "net_site_energy",
                  "units" : "kBtu",
                  "value" : 4528850.2861098889
               },
               {
                  "name" : "total_building_area",
                  "units" : "ft^2",
                  "value" : 53819.55208354861
               },
               {
                  "name" : "total_site_eui",
                  "units" : "kBtu/ft^2",
                  "value" : 84.148791856895699
               },
               {
                  "name" : "eui",
                  "units" : "kBtu/ft^2",
                  "value" : 84.148791856895699
               },
               {
                  "name" : "unmet_hours_during_heating",
                  "units" : "hr",
                  "value" : 0
               },
               {
                  "name" : "unmet_hours_during_cooling",
                  "units" : "hr",
                  "value" : 0
               },
               {
                  "name" : "unmet_hours_during_occupied_heating",
                  "units" : "hr",
                  "value" : 0
               },
               {
                  "name" : "unmet_hours_during_occupied_cooling",
                  "units" : "hr",
                  "value" : 0
               },
               {
                  "name" : "unmet_hours_tolerance_heating",
                  "units" : "F",
                  "value" : 0.35999999999999999
               },
               {
                  "name" : "unmet_hours_tolerance_cooling",
                  "units" : "F",
                  "value" : 0.35999999999999999
               },
               {
                  "name" : "end_use_heating",
                  "units" : "kBtu",
                  "value" : 3079078.6970498422
               },
               {
                  "name" : "end_use_cooling",
                  "units" : "kBtu",
                  "value" : 65333.034103196958
               },
               {
                  "name" : "end_use_interior_lighting",
                  "units" : "kBtu",
                  "value" : 522304.10231985658
               },
               {
                  "name" : "end_use_exterior_lighting",
                  "units" : "kBtu",
                  "value" : 0
               },
               {
                  "name" : "end_use_interior_equipment",
                  "units" : "kBtu",
                  "value" : 522304.10231985658
               },
               {
                  "name" : "end_use_exterior_equipment",
                  "units" : "kBtu",
                  "value" : 0
               },
               {
                  "name" : "end_use_fans",
                  "units" : "kBtu",
                  "value" : 338617.1444031357
               },
               {
                  "name" : "end_use_pumps",
                  "units" : "kBtu",
                  "value" : 0
               },
               {
                  "name" : "end_use_heat_rejection",
                  "units" : "kBtu",
                  "value" : 0
               },
               {
                  "name" : "end_use_humidification",
                  "units" : "kBtu",
                  "value" : 0
               },
               {
                  "name" : "end_use_heat_recovery",
                  "units" : "kBtu",
                  "value" : 0
               },
               {
                  "name" : "end_use_water_systems",
                  "units" : "kBtu",
                  "value" : 1203.7277427979129
               },
               {
                  "name" : "end_use_refrigeration",
                  "units" : "kBtu",
                  "value" : 0
               },
               {
                  "name" : "end_use_generators",
                  "units" : "kBtu",
                  "value" : 0
               },
               {
                  "name" : "fuel_electricity",
                  "units" : "kBtu",
                  "value" : 1449771.5890600469
               },
               {
                  "name" : "fuel_natural_gas",
                  "units" : "kBtu",
                  "value" : 3079078.6970498422
               },
               {
                  "name" : "fuel_additional_fuel",
                  "units" : "kBtu",
                  "value" : 0
               },
               {
                  "name" : "fuel_district_cooling",
                  "units" : "kBtu",
                  "value" : 0
               },
               {
                  "name" : "fuel_district_heating",
                  "units" : "kBtu",
                  "value" : 0
               },
               {
                  "name" : "end_use_electricity_heating",
                  "units" : "kWh",
                  "value" : 0
               },
               {
                  "name" : "end_use_electricity_cooling",
                  "units" : "kWh",
                  "value" : 19147.222222222223
               },
               {
                  "name" : "end_use_electricity_interior_lighting",
                  "units" : "kWh",
                  "value" : 153072.22222222222
               },
               {
                  "name" : "end_use_electricity_exterior_lighting",
                  "units" : "kWh",
                  "value" : 0
               },
               {
                  "name" : "end_use_electricity_interior_equipment",
                  "units" : "kWh",
                  "value" : 153072.22222222222
               },
               {
                  "name" : "end_use_electricity_exterior_equipment",
                  "units" : "kWh",
                  "value" : 0
               },
               {
                  "name" : "end_use_electricity_fans",
                  "units" : "kWh",
                  "value" : 99238.888888888891
               },
               {
                  "name" : "end_use_electricity_pumps",
                  "units" : "kWh",
                  "value" : 0
               },
               {
                  "name" : "end_use_electricity_heat_rejection",
                  "units" : "kWh",
                  "value" : 0
               },
               {
                  "name" : "end_use_electricity_humidification",
                  "units" : "kWh",
                  "value" : 0
               },
               {
                  "name" : "end_use_electricity_heat_recovery",
                  "units" : "kWh",
                  "value" : 0
               },
               {
                  "name" : "end_use_electricity_water_systems",
                  "units" : "kWh",
                  "value" : 352.77777777777777
               },
               {
                  "name" : "end_use_electricity_refrigeration",
                  "units" : "kWh",
                  "value" : 0
               },
               {
                  "name" : "end_use_electricity_generators",
                  "units" : "kWh",
                  "value" : 0
               },
               {
                  "name" : "end_use_natural_gas_heating",
                  "units" : "therms",
                  "value" : 30796.727999999999
               },
               {
                  "name" : "end_use_natural_gas_cooling",
                  "units" : "therms",
                  "value" : 0
               },
               {
                  "name" : "end_use_natural_gas_interior_lighting",
                  "units" : "therms",
                  "value" : 0
               },
               {
                  "name" : "end_use_natural_gas_exterior_lighting",
                  "units" : "therms",
                  "value" : 0
               },
               {
                  "name" : "end_use_natural_gas_interior_equipment",
                  "units" : "therms",
                  "value" : 0
               },
               {
                  "name" : "end_use_natural_gas_exterior_equipment",
                  "units" : "therms",
                  "value" : 0
               },
               {
                  "name" : "end_use_natural_gas_fans",
                  "units" : "therms",
                  "value" : 0
               },
               {
                  "name" : "end_use_natural_gas_pumps",
                  "units" : "therms",
                  "value" : 0
               },
               {
                  "name" : "end_use_natural_gas_heat_rejection",
                  "units" : "therms",
                  "value" : 0
               },
               {
                  "name" : "end_use_natural_gas_humidification",
                  "units" : "therms",
                  "value" : 0
               },
               {
                  "name" : "end_use_natural_gas_heat_recovery",
                  "units" : "therms",
                  "value" : 0
               },
               {
                  "name" : "end_use_natural_gas_water_systems",
                  "units" : "therms",
                  "value" : 0
               },
               {
                  "name" : "end_use_natural_gas_refrigeration",
                  "units" : "therms",
                  "value" : 0
               },
               {
                  "name" : "end_use_natural_gas_generators",
                  "units" : "therms",
                  "value" : 0
               },
               {
                  "name" : "electricity_heating_ip",
                  "units" : "kWh",
                  "value" : 0
               },
               {
                  "name" : "electricity_cooling_ip",
                  "units" : "kWh",
                  "value" : 19146.953091216667
               },
               {
                  "name" : "electricity_interior_lighting_ip",
                  "units" : "kWh",
                  "value" : 153073.55555555556
               },
               {
                  "name" : "electricity_exterior_lighting_ip",
                  "units" : "kWh",
                  "value" : 0
               },
               {
                  "name" : "electricity_interior_equipment_ip",
                  "units" : "kWh",
                  "value" : 153073.55555555556
               },
               {
                  "name" : "electricity_exterior_equipment_ip",
                  "units" : "kWh",
                  "value" : 0
               },
               {
                  "name" : "electricity_fans_ip",
                  "units" : "kWh",
                  "value" : 99238.694444444453
               },
               {
                  "name" : "electricity_pumps_ip",
                  "units" : "kWh",
                  "value" : 0
               },
               {
                  "name" : "electricity_heat_rejection_ip",
                  "units" : "kWh",
                  "value" : 0
               },
               {
                  "name" : "electricity_humidification_ip",
                  "units" : "kWh",
                  "value" : 0
               },
               {
                  "name" : "electricity_heat_recovery_ip",
                  "units" : "kWh",
                  "value" : 0
               },
               {
                  "name" : "electricity_water_systems_ip",
                  "units" : "kWh",
                  "value" : 353.52280042222225
               },
               {
                  "name" : "electricity_refrigeration_ip",
                  "units" : "kWh",
                  "value" : 0
               },
               {
                  "name" : "electricity_generators_ip",
                  "units" : "kWh",
                  "value" : 0
               },
               {
                  "name" : "electricity_ip",
                  "units" : "kWh",
                  "value" : 424886.2814471944
               },
               {
                  "name" : "natural_gas_heating_ip",
                  "units" : "MBtu",
                  "value" : 3079.0725362385601
               },
               {
                  "name" : "natural_gas_cooling_ip",
                  "units" : "MBtu",
                  "value" : 0
               },
               {
                  "name" : "natural_gas_interior_lighting_ip",
                  "units" : "MBtu",
                  "value" : 0
               },
               {
                  "name" : "natural_gas_exterior_lighting_ip",
                  "units" : "MBtu",
                  "value" : 0
               },
               {
                  "name" : "natural_gas_interior_equipment_ip",
                  "units" : "MBtu",
                  "value" : 0
               },
               {
                  "name" : "natural_gas_exterior_equipment_ip",
                  "units" : "MBtu",
                  "value" : 0
               },
               {
                  "name" : "natural_gas_fans_ip",
                  "units" : "MBtu",
                  "value" : 0
               },
               {
                  "name" : "natural_gas_pumps_ip",
                  "units" : "MBtu",
                  "value" : 0
               },
               {
                  "name" : "natural_gas_heat_rejection_ip",
                  "units" : "MBtu",
                  "value" : 0
               },
               {
                  "name" : "natural_gas_humidification_ip",
                  "units" : "MBtu",
                  "value" : 0
               },
               {
                  "name" : "natural_gas_heat_recovery_ip",
                  "units" : "MBtu",
                  "value" : 0
               },
               {
                  "name" : "natural_gas_water_systems_ip",
                  "units" : "MBtu",
                  "value" : 0
               },
               {
                  "name" : "natural_gas_refrigeration_ip",
                  "units" : "MBtu",
                  "value" : 0
               },
               {
                  "name" : "natural_gas_generators_ip",
                  "units" : "MBtu",
                  "value" : 0
               },
               {
                  "name" : "natural_gas_ip",
                  "units" : "MBtu",
                  "value" : 3079.0725362385601
               },
               {
                  "name" : "additional_fuel_heating_ip",
                  "units" : "MBtu",
                  "value" : 0
               },
               {
                  "name" : "additional_fuel_cooling_ip",
                  "units" : "MBtu",
                  "value" : 0
               },
               {
                  "name" : "additional_fuel_interior_lighting_ip",
                  "units" : "MBtu",
                  "value" : 0
               },
               {
                  "name" : "additional_fuel_exterior_lighting_ip",
                  "units" : "MBtu",
                  "value" : 0
               },
               {
                  "name" : "additional_fuel_interior_equipment_ip",
                  "units" : "MBtu",
                  "value" : 0
               },
               {
                  "name" : "additional_fuel_exterior_equipment_ip",
                  "units" : "MBtu",
                  "value" : 0
               },
               {
                  "name" : "additional_fuel_fans_ip",
                  "units" : "MBtu",
                  "value" : 0
               },
               {
                  "name" : "additional_fuel_pumps_ip",
                  "units" : "MBtu",
                  "value" : 0
               },
               {
                  "name" : "additional_fuel_heat_rejection_ip",
                  "units" : "MBtu",
                  "value" : 0
               },
               {
                  "name" : "additional_fuel_humidification_ip",
                  "units" : "MBtu",
                  "value" : 0
               },
               {
                  "name" : "additional_fuel_heat_recovery_ip",
                  "units" : "MBtu",
                  "value" : 0
               },
               {
                  "name" : "additional_fuel_water_systems_ip",
                  "units" : "MBtu",
                  "value" : 0
               },
               {
                  "name" : "additional_fuel_refrigeration_ip",
                  "units" : "MBtu",
                  "value" : 0
               },
               {
                  "name" : "additional_fuel_generators_ip",
                  "units" : "MBtu",
                  "value" : 0
               },
               {
                  "name" : "additional_fuel_ip",
                  "units" : "MBtu",
                  "value" : 0
               },
               {
                  "name" : "district_cooling_heating_ip",
                  "units" : "MBtu",
                  "value" : 0
               },
               {
                  "name" : "district_cooling_cooling_ip",
                  "units" : "MBtu",
                  "value" : 0
               },
               {
                  "name" : "district_cooling_interior_lighting_ip",
                  "units" : "MBtu",
                  "value" : 0
               },
               {
                  "name" : "district_cooling_exterior_lighting_ip",
                  "units" : "MBtu",
                  "value" : 0
               },
               {
                  "name" : "district_cooling_interior_equipment_ip",
                  "units" : "MBtu",
                  "value" : 0
               },
               {
                  "name" : "district_cooling_exterior_equipment_ip",
                  "units" : "MBtu",
                  "value" : 0
               },
               {
                  "name" : "district_cooling_fans_ip",
                  "units" : "MBtu",
                  "value" : 0
               },
               {
                  "name" : "district_cooling_pumps_ip",
                  "units" : "MBtu",
                  "value" : 0
               },
               {
                  "name" : "district_cooling_heat_rejection_ip",
                  "units" : "MBtu",
                  "value" : 0
               },
               {
                  "name" : "district_cooling_humidification_ip",
                  "units" : "MBtu",
                  "value" : 0
               },
               {
                  "name" : "district_cooling_heat_recovery_ip",
                  "units" : "MBtu",
                  "value" : 0
               },
               {
                  "name" : "district_cooling_water_systems_ip",
                  "units" : "MBtu",
                  "value" : 0
               },
               {
                  "name" : "district_cooling_refrigeration_ip",
                  "units" : "MBtu",
                  "value" : 0
               },
               {
                  "name" : "district_cooling_generators_ip",
                  "units" : "MBtu",
                  "value" : 0
               },
               {
                  "name" : "district_cooling_ip",
                  "units" : "MBtu",
                  "value" : 0
               },
               {
                  "name" : "district_heating_heating_ip",
                  "units" : "MBtu",
                  "value" : 0
               },
               {
                  "name" : "district_heating_cooling_ip",
                  "units" : "MBtu",
                  "value" : 0
               },
               {
                  "name" : "district_heating_interior_lighting_ip",
                  "units" : "MBtu",
                  "value" : 0
               },
               {
                  "name" : "district_heating_exterior_lighting_ip",
                  "units" : "MBtu",
                  "value" : 0
               },
               {
                  "name" : "district_heating_interior_equipment_ip",
                  "units" : "MBtu",
                  "value" : 0
               },
               {
                  "name" : "district_heating_exterior_equipment_ip",
                  "units" : "MBtu",
                  "value" : 0
               },
               {
                  "name" : "district_heating_fans_ip",
                  "units" : "MBtu",
                  "value" : 0
               },
               {
                  "name" : "district_heating_pumps_ip",
                  "units" : "MBtu",
                  "value" : 0
               },
               {
                  "name" : "district_heating_heat_rejection_ip",
                  "units" : "MBtu",
                  "value" : 0
               },
               {
                  "name" : "district_heating_humidification_ip",
                  "units" : "MBtu",
                  "value" : 0
               },
               {
                  "name" : "district_heating_heat_recovery_ip",
                  "units" : "MBtu",
                  "value" : 0
               },
               {
                  "name" : "district_heating_water_systems_ip",
                  "units" : "MBtu",
                  "value" : 0
               },
               {
                  "name" : "district_heating_refrigeration_ip",
                  "units" : "MBtu",
                  "value" : 0
               },
               {
                  "name" : "district_heating_generators_ip",
                  "units" : "MBtu",
                  "value" : 0
               },
               {
                  "name" : "district_heating_ip",
                  "units" : "MBtu",
                  "value" : 0
               },
               {
                  "name" : "water_heating_ip",
                  "units" : "MBtu",
                  "value" : 0
               },
               {
                  "name" : "water_cooling_ip",
                  "units" : "MBtu",
                  "value" : 0
               },
               {
                  "name" : "water_interior_lighting_ip",
                  "units" : "MBtu",
                  "value" : 0
               },
               {
                  "name" : "water_exterior_lighting_ip",
                  "units" : "MBtu",
                  "value" : 0
               },
               {
                  "name" : "water_interior_equipment_ip",
                  "units" : "MBtu",
                  "value" : 0
               },
               {
                  "name" : "water_exterior_equipment_ip",
                  "units" : "MBtu",
                  "value" : 0
               },
               {
                  "name" : "water_fans_ip",
                  "units" : "MBtu",
                  "value" : 0
               },
               {
                  "name" : "water_pumps_ip",
                  "units" : "MBtu",
                  "value" : 0
               },
               {
                  "name" : "water_heat_rejection_ip",
                  "units" : "MBtu",
                  "value" : 0
               },
               {
                  "name" : "water_humidification_ip",
                  "units" : "MBtu",
                  "value" : 0
               },
               {
                  "name" : "water_heat_recovery_ip",
                  "units" : "MBtu",
                  "value" : 0
               },
               {
                  "name" : "water_water_systems_ip",
                  "units" : "MBtu",
                  "value" : 0
               },
               {
                  "name" : "water_refrigeration_ip",
                  "units" : "MBtu",
                  "value" : 0
               },
               {
                  "name" : "water_generators_ip",
                  "units" : "MBtu",
                  "value" : 0
               },
               {
                  "name" : "water_ip",
                  "units" : "MBtu",
                  "value" : 0
               },
               {
                  "name" : "ashrae_189_1_2009_ext_roof_iead_climate_zone_2_5",
                  "units" : "ft^2",
                  "value" : 53819.55208354861
               },
               {
                  "name" : "ashrae_189_1_2009_ext_wall_steel_frame_climate_zone_4_8",
                  "units" : "ft^2",
                  "value" : 7750.0155000310051
               },
               {
                  "name" : "ashrae_189_1_2009_ext_window_climate_zone_4_5",
                  "units" : "ft^2",
                  "value" : 5166.6770000206616
               },
               {
                  "name" : "gross_window_wall_ratio",
                  "units" : "%",
                  "value" : 40
               },
               {
                  "name" : "gross_window_wall_ratio_conditioned",
                  "units" : "%",
                  "value" : 40
               },
               {
                  "name" : "skylight_roof_ratio",
                  "units" : "%",
                  "value" : 0
               },
               {
                  "name" : "space_type_baseline_model_space_type",
                  "units" : "ft^2",
                  "value" : 53819.55208354861
               },
               {
                  "name" : "exterior_lighting_total_power",
                  "units" : "W",
                  "value" : 0
               },
               {
                  "name" : "exterior_lighting_total_consumption",
                  "units" : "kWh",
                  "value" : 1327275
               },
               {
                  "name" : "water_use_equipment_1",
                  "units" : "gal/min",
                  "value" : 0
               },
               {
                  "name" : "inflation_approach",
                  "value" : "Constant Dollar"
               },
               {
                  "name" : "analysis_length",
                  "units" : "yrs",
                  "value" : 25
               },
               {
                  "name" : "annual_peak_electric_demand",
                  "units" : "kW",
                  "value" : 172.12604999999999
               },
               {
                  "name" : "first_year_capital_cost",
                  "units" : "$",
                  "value" : 0
               },
               {
                  "name" : "annual_utility_cost",
                  "units" : "$",
                  "value" : 0
               },
               {
                  "name" : "total_lifecycle_cost",
                  "units" : "$",
                  "value" : 0
               }
            ],
            "step_warnings" : []
         }
      }
   ],
   "updated_at" : "20180205T213201Z",
   "weather_file" : "../../weatherdata/USA_IL_Chicago-OHare.Intl.AP.725300_TMY3.epw"
}
