{
  "completed_status": "Fail",
  "current_step": 0,
  "eplusout_err": [
    "Program Version,EnergyPlus, Version 8.7.0-ae053cab77, IDD_Version 8.7.0",
    "   ************* Beginning Zone Sizing Calculations",
    "   ** Warning ** ProcessScheduleInput: Schedule:Day:Interval=\"SCHEDULE DAY 10\", Blank Schedule Type Limits Name input -- will not be validated.",
    "   ** Warning ** ProcessScheduleInput: Schedule:Day:Interval=\"SCHEDULE DAY 11\", Blank Schedule Type Limits Name input -- will not be validated.",
    "   ** Warning ** ProcessScheduleInput: Schedule:Day:Interval=\"SCHEDULE DAY 12\", Blank Schedule Type Limits Name input -- will not be validated.",
    "   ** Warning ** ProcessScheduleInput: Schedule:Day:Interval=\"SCHEDULE DAY 13\", Blank Schedule Type Limits Name input -- will not be validated.",
    "   ** Warning ** ProcessScheduleInput: Schedule:Constant=\"ALWAYS OFF DISCRETE\", Blank Schedule Type Limits Name input -- will not be validated.",
    "   ** Warning ** ProcessScheduleInput: Schedule:Constant=\"ALWAYS ON CONTINUOUS\", Blank Schedule Type Limits Name input -- will not be validated.",
    "   ** Warning ** GetHTSurfaceData: Surfaces with interface to Ground found but no \"Ground Temperatures\" were input.",
    "   **   ~~~   ** Found first in surface=SURFACE 25",
    "   **   ~~~   ** Defaults, constant throughout the year of (18.0) will be used.",
    "   ** Warning ** CheckUsedConstructions: There are 8 nominally unused constructions in input.",
    "   **   ~~~   ** For explicit details on each unused construction, use Output:Diagnostics,DisplayExtraWarnings;",
    "   ** Warning ** WaterHeater:Stratified = WATER HEATER STRATIFIED 1:  More Additional Loss Coefficients were entered than the number of nodes; extra coefficients will not be used",
    "   ** Severe  ** WaterHeater:Stratified = WATER HEATER STRATIFIED 1 has a source inlet or outlet node specified,",
    "   **   ~~~   ** but it is attached to WaterHeater:HeatPump:WrappedCondenser = WATER HEATER HEAT PUMP WRAPPED CONDENSER 1, which doesn't permit source side connections.",
    "   **   ~~~   ** Please leave the source side inlet and outlet fields blank.",
    "   ** Severe  ** WaterHeater:HeatPump:WrappedCondenser = WATER HEATER HEAT PUMP WRAPPED CONDENSER 1:",
    "   **   ~~~   ** Heat Pump condenser water inlet node name does not match water heater tank source outlet node name.",
    "   **   ~~~   ** Heat pump condenser water inlet and outlet node names = DUMMY CONDENSER INLET COIL WATER HEATING AIR TO WATER HEAT PUMP WRAPPED 1 and DUMMY CONDENSER OUTLET COIL WATER HEATING AIR TO WATER HEAT PUMP WRAPPED 1",
    "   **   ~~~   ** Water heater tank source side inlet and outlet node names      = WATER HEATER HEAT PUMP WRAPPED CONDENSER 1 CONDENSER OUTLET - TANK INLET and WATER HEATER HEAT PUMP WRAPPED CONDENSER 1 TANK OUTLET - CONDENSER INLET",
    "   ** Severe  ** WaterHeater:HeatPump:WrappedCondenser = WATER HEATER HEAT PUMP WRAPPED CONDENSER 1:",
    "   **   ~~~   ** Heat Pump condenser water outlet node name does not match water heater tank source inlet node name.",
    "   **   ~~~   ** Heat pump condenser water inlet and outlet node names = DUMMY CONDENSER INLET COIL WATER HEATING AIR TO WATER HEAT PUMP WRAPPED 1 and DUMMY CONDENSER OUTLET COIL WATER HEATING AIR TO WATER HEAT PUMP WRAPPED 1",
    "   **   ~~~   ** Water heater tank source side inlet and outlet node names      = WATER HEATER HEAT PUMP WRAPPED CONDENSER 1 CONDENSER OUTLET - TANK INLET and WATER HEATER HEAT PUMP WRAPPED CONDENSER 1 TANK OUTLET - CONDENSER INLET",
    "   **  Fatal  ** GetWaterThermalTankInput: Errors found in getting thermal storage input. Preceding condition(s) causes termination.",
    "   ...Summary of Errors that led to program termination:",
    "   ..... Reference severe error count=3",
    "   ..... Last severe error=WaterHeater:HeatPump:WrappedCondenser = WATER HEATER HEAT PUMP WRAPPED CONDENSER 1:",
    "   ************* Warning:  Node connection errors not checked - most system input has not been read (see previous warning).",
    "   ************* Fatal error -- final processing.  Program exited before simulations began.  See previous error messages.",
    "   *************",
    "   ************* ===== Final Error Summary =====",
    "   ************* The following error categories occurred.  Consider correcting or noting.",
    "   ************* Nominally Unused Constructions",
    "   ************* ..The nominally unused constructions warning is provided to alert you to potential conditions that can cause",
    "   ************* ..extra time during simulation. Each construction is calculated by the algorithm indicated in the HeatBalanceAlgorithm",
    "   ************* ..object. You may remove the constructions indicated (when you use the DisplayExtraWarnings option).",
    "   *************",
    "   ************* EnergyPlus Warmup Error Summary. During Warmup: 0 Warning; 0 Severe Errors.",
    "   ************* EnergyPlus Sizing Error Summary. During Sizing: 9 Warning; 3 Severe Errors.",
    "   ************* EnergyPlus Terminated--Fatal Error Detected. 9 Warning; 3 Severe Errors; "
  ],
  "seed_file": "in.osm",
  "steps": [
    {
      "arguments": {
      },
      "measure_dir_name": "openstudio_results"
    }
  ],
  "weather_file": "../../weatherdata/USA_IL_Chicago-OHare.Intl.AP.725300_TMY3.epw"
}