{
  "completed_status": "Fail",
  "current_step": 0,
  "eplusout_err": [
    "Program Version,EnergyPlus, Version 9.0.1-bb7ca4f0da, ",
    "   ** Severe  ** Duplicate name found. name: \"Salvage Cost\". Overwriting existing object.",
    "   ** Severe  ** Duplicate name found. name: \"Demolition Cost\". Overwriting existing object.",
    "   ** Severe  ** Duplicate name found. name: \"Material Cost\". Overwriting existing object.",
    "   ** Severe  ** Duplicate name found. name: \"Material Cost Replacement\". Overwriting existing object.",
    "   ** Severe  ** Duplicate name found. name: \"Maintenance Cost\". Overwriting existing object.",
    "   ** Severe  ** Duplicate name found. name: \"Material Cost\". Overwriting existing object.",
    "   ** Severe  ** Duplicate name found. name: \"Material Cost Replacement\". Overwriting existing object.",
    "   ** Severe  ** Duplicate name found. name: \"Salvage Cost\". Overwriting existing object.",
    "   ** Severe  ** Duplicate name found. name: \"Demolition Cost\". Overwriting existing object.",
    "   ** Severe  ** Duplicate name found. name: \"Maintenance Cost\". Overwriting existing object.",
    "   ** Severe  ** Duplicate name found. name: \"Maintenance Cost\". Overwriting existing object.",
    "   ** Severe  ** Duplicate name found. name: \"Material Cost\". Overwriting existing object.",
    "   ** Severe  ** Duplicate name found. name: \"Material Cost Replacement\". Overwriting existing object.",
    "   ** Severe  ** Duplicate name found. name: \"Salvage Cost\". Overwriting existing object.",
    "   ** Severe  ** Duplicate name found. name: \"Demolition Cost\". Overwriting existing object.",
    "   ** Severe  ** Duplicate name found. name: \"Salvage Cost\". Overwriting existing object.",
    "   ** Severe  ** Duplicate name found. name: \"Demolition Cost\". Overwriting existing object.",
    "   ** Severe  ** Duplicate name found. name: \"Material Cost\". Overwriting existing object.",
    "   ** Severe  ** Duplicate name found. name: \"Material Cost Replacement\". Overwriting existing object.",
    "   ** Severe  ** Duplicate name found. name: \"Maintenance Cost\". Overwriting existing object.",
    "   ** Severe  ** Duplicate name found. name: \"Material Cost\". Overwriting existing object.",
    "   ** Severe  ** Duplicate name found. name: \"Material Cost Replacement\". Overwriting existing object.",
    "   ** Severe  ** Duplicate name found. name: \"Demolition Cost\". Overwriting existing object.",
    "   ** Severe  ** Duplicate name found. name: \"Maintenance Cost\". Overwriting existing object.",
    "   ** Severe  ** Duplicate name found. name: \"Salvage Cost\". Overwriting existing object.",
    "   **  Fatal  ** Errors occurred on processing input file. Preceding condition(s) cause termination.",
    "   ...Summary of Errors that led to program termination:",
    "   ..... Reference severe error count=25",
    "   ..... Last severe error=Duplicate name found. name: \"Salvage Cost\". Overwriting existing object.",
    "   ************* Warning:  Node connection errors not checked - most system input has not been read (see previous warning).",
    "   ************* Fatal error -- final processing.  Program exited before simulations began.  See previous error messages.",
    "   ************* EnergyPlus Warmup Error Summary. During Warmup: 0 Warning; 0 Severe Errors.",
    "   ************* EnergyPlus Sizing Error Summary. During Sizing: 0 Warning; 0 Severe Errors.",
    "   ************* EnergyPlus Terminated--Fatal Error Detected. 0 Warning; 25 Severe Errors; "
  ],
  "seed_file": "in.osm",
  "steps": [
    {
      "arguments": {
      },
      "measure_dir_name": "openstudio_results"
    }
  ],
  "weather_file": "../../weatherdata/USA_IL_Chicago-OHare.Intl.AP.725300_TMY3.epw"
}