{
  "completed_status": "Fail",
  "current_step": 0,
  "eplusout_err": [
    "Program Version,EnergyPlus, Version 9.1.0-fafb9d5652, ",
    "   ************* Beginning Zone Sizing Calculations",
    "   ** Warning ** ProcessScheduleInput: Schedule:Day:Interval=\"{04A7D32C-E9D8-42F8-BA45-4EA62DC19199}\", Blank Schedule Type Limits Name input -- will not be validated.",
    "   ** Warning ** ProcessScheduleInput: Schedule:Day:Interval=\"{0E9AFFB2-4DF0-42E8-8108-5FB23D2C8EF5}\", Blank Schedule Type Limits Name input -- will not be validated.",
    "   ** Warning ** ProcessScheduleInput: Schedule:Day:Interval=\"{1E47540D-2A0D-413E-9DAA-C0C293355366}\", Blank Schedule Type Limits Name input -- will not be validated.",
    "   ** Warning ** ProcessScheduleInput: Schedule:Day:Interval=\"{2DC89B6F-0B43-4DF1-AF57-561D52EBB325}\", Blank Schedule Type Limits Name input -- will not be validated.",
    "   ** Warning ** ProcessScheduleInput: Schedule:Day:Interval=\"{305B317B-EDA5-4262-9735-66F0B70DAEDB}\", Blank Schedule Type Limits Name input -- will not be validated.",
    "   ** Warning ** ProcessScheduleInput: Schedule:Day:Interval=\"{3DA46EBE-64C3-46A6-9B1C-5A72636F4FD2}\", Blank Schedule Type Limits Name input -- will not be validated.",
    "   ** Warning ** ProcessScheduleInput: Schedule:Day:Interval=\"{4630527D-7BBB-47B9-8126-2AC740E9A837}\", Blank Schedule Type Limits Name input -- will not be validated.",
    "   ** Warning ** ProcessScheduleInput: Schedule:Day:Interval=\"{469C4CFE-47DC-4DA9-BEDC-CBBA3375C2A2}\", Blank Schedule Type Limits Name input -- will not be validated.",
    "   ** Warning ** ProcessScheduleInput: Schedule:Day:Interval=\"{5DD15E21-46EA-40C1-ADF9-C5D22C3B8981}\", Blank Schedule Type Limits Name input -- will not be validated.",
    "   ** Warning ** ProcessScheduleInput: Schedule:Day:Interval=\"{671F9D68-34F1-406E-9898-A45955ADA435}\", Blank Schedule Type Limits Name input -- will not be validated.",
    "   ** Warning ** ProcessScheduleInput: Schedule:Day:Interval=\"{67952C66-5237-49AC-AC92-B864324A1145}\", Blank Schedule Type Limits Name input -- will not be validated.",
    "   ** Warning ** ProcessScheduleInput: Schedule:Day:Interval=\"{848C6AC1-2E48-4587-BB0A-A629D205BA48}\", Blank Schedule Type Limits Name input -- will not be validated.",
    "   ** Warning ** ProcessScheduleInput: Schedule:Day:Interval=\"{9BB0B054-6211-4D4D-B7C3-0A462B85FFCF}\", Blank Schedule Type Limits Name input -- will not be validated.",
    "   ** Warning ** ProcessScheduleInput: Schedule:Day:Interval=\"{9C302A0C-BD49-4371-8302-58DFA33E75BF}\", Blank Schedule Type Limits Name input -- will not be validated.",
    "   ** Warning ** ProcessScheduleInput: Schedule:Day:Interval=\"{B07679AF-ABB4-4864-AF72-993D92D96223}\", Blank Schedule Type Limits Name input -- will not be validated.",
    "   ** Warning ** ProcessScheduleInput: Schedule:Day:Interval=\"{B7098236-BC37-46CA-B5D3-5FBF0ECA58F3}\", Blank Schedule Type Limits Name input -- will not be validated.",
    "   ** Warning ** ProcessScheduleInput: Schedule:Day:Interval=\"{B88FA8E9-CDE4-414B-A489-E9E8C9FC2C29}\", Blank Schedule Type Limits Name input -- will not be validated.",
    "   ** Warning ** ProcessScheduleInput: Schedule:Day:Interval=\"{CD8B9C49-4DD7-48DE-8B32-CA4A9D34D7F9}\", Blank Schedule Type Limits Name input -- will not be validated.",
    "   ** Warning ** ProcessScheduleInput: Schedule:Day:Interval=\"{D4943569-E8D6-4AAA-BBFF-2819547DACEB}\", Blank Schedule Type Limits Name input -- will not be validated.",
    "   ** Warning ** ProcessScheduleInput: Schedule:Day:Interval=\"{EEFACE4E-542C-491F-A57F-A9D2D58E86F2}\", Blank Schedule Type Limits Name input -- will not be validated.",
    "   ** Warning ** ProcessScheduleInput: Schedule:Year=\"CORE_BOTTOM TARGET SHW TEMP\", Blank Schedule Type Limits Name input -- will not be validated.",
    "   ** Warning ** ProcessScheduleInput: Schedule:Year=\"CORE_HI TARGET SHW TEMP\", Blank Schedule Type Limits Name input -- will not be validated.",
    "   ** Warning ** ProcessScheduleInput: Schedule:Year=\"CORE_MID DATA CENTER TARGET SHW TEMP\", Blank Schedule Type Limits Name input -- will not be validated.",
    "   ** Warning ** ProcessScheduleInput: Schedule:Year=\"CORE_TOP TARGET SHW TEMP\", Blank Schedule Type Limits Name input -- will not be validated.",
    "   ** Warning ** ProcessScheduleInput: Schedule:Year=\"PERIMETER_BOT_ZN_1 TARGET SHW TEMP\", Blank Schedule Type Limits Name input -- will not be validated.",
    "   ** Warning ** ProcessScheduleInput: Schedule:Year=\"PERIMETER_BOT_ZN_2 TARGET SHW TEMP\", Blank Schedule Type Limits Name input -- will not be validated.",
    "   ** Warning ** ProcessScheduleInput: Schedule:Year=\"PERIMETER_BOT_ZN_3 TARGET SHW TEMP\", Blank Schedule Type Limits Name input -- will not be validated.",
    "   ** Warning ** ProcessScheduleInput: Schedule:Year=\"PERIMETER_BOT_ZN_4 TARGET SHW TEMP\", Blank Schedule Type Limits Name input -- will not be validated.",
    "   ** Warning ** ProcessScheduleInput: Schedule:Year=\"PERIMETER_HI_ZN_1 TARGET SHW TEMP\", Blank Schedule Type Limits Name input -- will not be validated.",
    "   ** Warning ** ProcessScheduleInput: Schedule:Year=\"PERIMETER_HI_ZN_2 TARGET SHW TEMP\", Blank Schedule Type Limits Name input -- will not be validated.",
    "   ** Warning ** ProcessScheduleInput: Schedule:Year=\"PERIMETER_HI_ZN_3 TARGET SHW TEMP\", Blank Schedule Type Limits Name input -- will not be validated.",
    "   ** Warning ** ProcessScheduleInput: Schedule:Year=\"PERIMETER_HI_ZN_4 TARGET SHW TEMP\", Blank Schedule Type Limits Name input -- will not be validated.",
    "   ** Warning ** ProcessScheduleInput: Schedule:Year=\"PERIMETER_MID_ZN_1 TARGET SHW TEMP\", Blank Schedule Type Limits Name input -- will not be validated.",
    "   ** Warning ** ProcessScheduleInput: Schedule:Year=\"PERIMETER_MID_ZN_2 TARGET SHW TEMP\", Blank Schedule Type Limits Name input -- will not be validated.",
    "   ** Warning ** ProcessScheduleInput: Schedule:Year=\"PERIMETER_MID_ZN_3 TARGET SHW TEMP\", Blank Schedule Type Limits Name input -- will not be validated.",
    "   ** Warning ** ProcessScheduleInput: Schedule:Year=\"PERIMETER_MID_ZN_4 TARGET SHW TEMP\", Blank Schedule Type Limits Name input -- will not be validated.",
    "   ** Warning ** ProcessScheduleInput: Schedule:Year=\"PERIMETER_TOP_ZN_1 TARGET SHW TEMP\", Blank Schedule Type Limits Name input -- will not be validated.",
    "   ** Warning ** ProcessScheduleInput: Schedule:Year=\"PERIMETER_TOP_ZN_2 TARGET SHW TEMP\", Blank Schedule Type Limits Name input -- will not be validated.",
    "   ** Warning ** ProcessScheduleInput: Schedule:Year=\"PERIMETER_TOP_ZN_3 TARGET SHW TEMP\", Blank Schedule Type Limits Name input -- will not be validated.",
    "   ** Warning ** ProcessScheduleInput: Schedule:Year=\"PERIMETER_TOP_ZN_4 TARGET SHW TEMP\", Blank Schedule Type Limits Name input -- will not be validated.",
    "   ** Warning ** ProcessScheduleInput: Schedule:Constant=\"ALWAYS OFF DISCRETE\", Blank Schedule Type Limits Name input -- will not be validated.",
    "   ** Warning ** ProcessScheduleInput: Schedule:Constant=\"ALWAYS ON CONTINUOUS\", Blank Schedule Type Limits Name input -- will not be validated.",
    "   ** Warning ** Weather file location will be used rather than entered (IDF) Location object.",
    "   **   ~~~   ** ..Location object={74347B17-FA0C-45D1-A91A-80BD3C985855}",
    "   **   ~~~   ** ..Weather File Location=Chicago Ohare Intl Ap IL USA TMY3 WMO#=725300",
    "   **   ~~~   ** ..due to location differences, Latitude difference=[3.40] degrees, Longitude difference=[33.57] degrees.",
    "   **   ~~~   ** ..Time Zone difference=[2.0] hour(s), Elevation difference=[4972.68] percent, [197.04] meters.",
    "   ** Warning ** CalculateZoneVolume: 3 zones are not fully enclosed. For more details use:  Output:Diagnostics,DisplayExtrawarnings; ",
    "   ** Warning ** GetDaylightingControls: Fraction of Zone controlled by the Daylighting reference points is < 1.0.",
    "   **   ~~~   ** ..discovered in \"Daylighting:Controls\" for Zone=\"PERIMETER_BOT_ZN_1 THERMAL ZONE\", only 0.56 of the zone is controlled.",
    "   ** Warning ** GetDaylightingControls: Fraction of Zone controlled by the Daylighting reference points is < 1.0.",
    "   **   ~~~   ** ..discovered in \"Daylighting:Controls\" for Zone=\"PERIMETER_BOT_ZN_2 THERMAL ZONE\", only 0.57 of the zone is controlled.",
    "   ** Warning ** GetDaylightingControls: Fraction of Zone controlled by the Daylighting reference points is < 1.0.",
    "   **   ~~~   ** ..discovered in \"Daylighting:Controls\" for Zone=\"PERIMETER_BOT_ZN_3 THERMAL ZONE\", only 0.56 of the zone is controlled.",
    "   ** Warning ** GetDaylightingControls: Fraction of Zone controlled by the Daylighting reference points is < 1.0.",
    "   **   ~~~   ** ..discovered in \"Daylighting:Controls\" for Zone=\"PERIMETER_BOT_ZN_4 THERMAL ZONE\", only 0.57 of the zone is controlled.",
    "   ** Warning ** GetDaylightingControls: Fraction of Zone controlled by the Daylighting reference points is < 1.0.",
    "   **   ~~~   ** ..discovered in \"Daylighting:Controls\" for Zone=\"PERIMETER_HI_ZN_1 THERMAL ZONE\", only 0.56 of the zone is controlled.",
    "   ** Warning ** GetDaylightingControls: Fraction of Zone controlled by the Daylighting reference points is < 1.0.",
    "   **   ~~~   ** ..discovered in \"Daylighting:Controls\" for Zone=\"PERIMETER_HI_ZN_2 THERMAL ZONE\", only 0.57 of the zone is controlled.",
    "   ** Warning ** GetDaylightingControls: Fraction of Zone controlled by the Daylighting reference points is < 1.0.",
    "   **   ~~~   ** ..discovered in \"Daylighting:Controls\" for Zone=\"PERIMETER_HI_ZN_3 THERMAL ZONE\", only 0.56 of the zone is controlled.",
    "   ** Warning ** GetDaylightingControls: Fraction of Zone controlled by the Daylighting reference points is < 1.0.",
    "   **   ~~~   ** ..discovered in \"Daylighting:Controls\" for Zone=\"PERIMETER_HI_ZN_4 THERMAL ZONE\", only 0.57 of the zone is controlled.",
    "   ** Warning ** GetDaylightingControls: Fraction of Zone controlled by the Daylighting reference points is < 1.0.",
    "   **   ~~~   ** ..discovered in \"Daylighting:Controls\" for Zone=\"PERIMETER_MID_ZN_1 THERMAL ZONE\", only 0.56 of the zone is controlled.",
    "   ** Warning ** GetDaylightingControls: Fraction of Zone controlled by the Daylighting reference points is < 1.0.",
    "   **   ~~~   ** ..discovered in \"Daylighting:Controls\" for Zone=\"PERIMETER_MID_ZN_2 THERMAL ZONE\", only 0.57 of the zone is controlled.",
    "   ** Warning ** GetDaylightingControls: Fraction of Zone controlled by the Daylighting reference points is < 1.0.",
    "   **   ~~~   ** ..discovered in \"Daylighting:Controls\" for Zone=\"PERIMETER_MID_ZN_3 THERMAL ZONE\", only 0.56 of the zone is controlled.",
    "   ** Warning ** GetDaylightingControls: Fraction of Zone controlled by the Daylighting reference points is < 1.0.",
    "   **   ~~~   ** ..discovered in \"Daylighting:Controls\" for Zone=\"PERIMETER_MID_ZN_4 THERMAL ZONE\", only 0.57 of the zone is controlled.",
    "   ** Warning ** GetDaylightingControls: Fraction of Zone controlled by the Daylighting reference points is < 1.0.",
    "   **   ~~~   ** ..discovered in \"Daylighting:Controls\" for Zone=\"PERIMETER_TOP_ZN_1 THERMAL ZONE\", only 0.56 of the zone is controlled.",
    "   ** Warning ** GetDaylightingControls: Fraction of Zone controlled by the Daylighting reference points is < 1.0.",
    "   **   ~~~   ** ..discovered in \"Daylighting:Controls\" for Zone=\"PERIMETER_TOP_ZN_2 THERMAL ZONE\", only 0.57 of the zone is controlled.",
    "   ** Warning ** GetDaylightingControls: Fraction of Zone controlled by the Daylighting reference points is < 1.0.",
    "   **   ~~~   ** ..discovered in \"Daylighting:Controls\" for Zone=\"PERIMETER_TOP_ZN_3 THERMAL ZONE\", only 0.56 of the zone is controlled.",
    "   ** Warning ** GetDaylightingControls: Fraction of Zone controlled by the Daylighting reference points is < 1.0.",
    "   **   ~~~   ** ..discovered in \"Daylighting:Controls\" for Zone=\"PERIMETER_TOP_ZN_4 THERMAL ZONE\", only 0.57 of the zone is controlled.",
    "   ** Warning ** GetSimpleAirModelInputs: ZoneInfiltration:DesignFlowRate=\"GROUNDFLOOR SUPPLENUM SPC SPACE INFILTRATION DESIGN FLOW RATE 1\", Design Flow Rate Calculation Method specifies Flow per Exterior Surface Area, but Exterior Wall Area = 0.  0 Infiltration will result.",
    "   ** Warning ** GetSimpleAirModelInputs: ZoneInfiltration:DesignFlowRate=\"CORE_BOTTOM SPACE INFILTRATION DESIGN FLOW RATE 1\", Design Flow Rate Calculation Method specifies Flow per Exterior Surface Area, but Exterior Wall Area = 0.  0 Infiltration will result.",
    "   ** Warning ** GetSimpleAirModelInputs: ZoneInfiltration:DesignFlowRate=\"CORE_HI SPACE INFILTRATION DESIGN FLOW RATE 1\", Design Flow Rate Calculation Method specifies Flow per Exterior Surface Area, but Exterior Wall Area = 0.  0 Infiltration will result.",
    "   ** Warning ** GetSimpleAirModelInputs: ZoneInfiltration:DesignFlowRate=\"CORE_TOP SPACE INFILTRATION DESIGN FLOW RATE 1\", Design Flow Rate Calculation Method specifies Flow per Exterior Surface Area, but Exterior Wall Area = 0.  0 Infiltration will result.",
    "   ** Warning ** GetSimpleAirModelInputs: ZoneInfiltration:DesignFlowRate=\"CORE_MID DATA CENTER SPACE INFILTRATION DESIGN FLOW RATE 1\", Design Flow Rate Calculation Method specifies Flow per Exterior Surface Area, but Exterior Wall Area = 0.  0 Infiltration will result.",
    "   ************* Beginning System Sizing Calculations",
    "   ** Warning ** Since Zone Minimum Air Flow Input Method = FIXEDFLOWRATE, input for Constant Minimum Air Flow Fraction will be ignored.",
    "   **   ~~~   ** Occurs in AirTerminal:SingleDuct:VAV:Reheat = TERMINALUNIT-CORE BOTTOM",
    "   ** Warning ** Since Damper Heating Action = REVERSE, input for Maximum Flow Fraction During Reheat will be ignored.",
    "   **   ~~~   ** Occurs in AirTerminal:SingleDuct:VAV:Reheat = TERMINALUNIT-CORE BOTTOM",
    "   ** Warning ** Since Zone Minimum Air Flow Input Method = FIXEDFLOWRATE, input for Constant Minimum Air Flow Fraction will be ignored.",
    "   **   ~~~   ** Occurs in AirTerminal:SingleDuct:VAV:Reheat = TERMINALUNIT-CORE HI",
    "   ** Warning ** Since Damper Heating Action = REVERSE, input for Maximum Flow Fraction During Reheat will be ignored.",
    "   **   ~~~   ** Occurs in AirTerminal:SingleDuct:VAV:Reheat = TERMINALUNIT-CORE HI",
    "   ** Warning ** Since Zone Minimum Air Flow Input Method = FIXEDFLOWRATE, input for Constant Minimum Air Flow Fraction will be ignored.",
    "   **   ~~~   ** Occurs in AirTerminal:SingleDuct:VAV:Reheat = TERMINALUNIT-PERIMETER_BOT_1",
    "   ** Warning ** Since Damper Heating Action = REVERSE, input for Maximum Flow Fraction During Reheat will be ignored.",
    "   **   ~~~   ** Occurs in AirTerminal:SingleDuct:VAV:Reheat = TERMINALUNIT-PERIMETER_BOT_1",
    "   ** Warning ** Since Zone Minimum Air Flow Input Method = FIXEDFLOWRATE, input for Constant Minimum Air Flow Fraction will be ignored.",
    "   **   ~~~   ** Occurs in AirTerminal:SingleDuct:VAV:Reheat = TERMINALUNIT-PERIMETER_BOT_2",
    "   ** Warning ** Since Damper Heating Action = REVERSE, input for Maximum Flow Fraction During Reheat will be ignored.",
    "   **   ~~~   ** Occurs in AirTerminal:SingleDuct:VAV:Reheat = TERMINALUNIT-PERIMETER_BOT_2",
    "   ** Warning ** Since Zone Minimum Air Flow Input Method = FIXEDFLOWRATE, input for Constant Minimum Air Flow Fraction will be ignored.",
    "   **   ~~~   ** Occurs in AirTerminal:SingleDuct:VAV:Reheat = TERMINALUNIT-PERMETER_BOT_3",
    "   ** Warning ** Since Damper Heating Action = REVERSE, input for Maximum Flow Fraction During Reheat will be ignored.",
    "   **   ~~~   ** Occurs in AirTerminal:SingleDuct:VAV:Reheat = TERMINALUNIT-PERMETER_BOT_3",
    "   ** Warning ** Since Zone Minimum Air Flow Input Method = FIXEDFLOWRATE, input for Constant Minimum Air Flow Fraction will be ignored.",
    "   **   ~~~   ** Occurs in AirTerminal:SingleDuct:VAV:Reheat = TERMINALUNIT-PERIMETER_BOT_4",
    "   ** Warning ** Since Damper Heating Action = REVERSE, input for Maximum Flow Fraction During Reheat will be ignored.",
    "   **   ~~~   ** Occurs in AirTerminal:SingleDuct:VAV:Reheat = TERMINALUNIT-PERIMETER_BOT_4",
    "   ** Warning ** Since Zone Minimum Air Flow Input Method = FIXEDFLOWRATE, input for Constant Minimum Air Flow Fraction will be ignored.",
    "   **   ~~~   ** Occurs in AirTerminal:SingleDuct:VAV:Reheat = TERMINALUNIT-PERIMETER_HI_1",
    "   ** Warning ** Since Damper Heating Action = REVERSE, input for Maximum Flow Fraction During Reheat will be ignored.",
    "   **   ~~~   ** Occurs in AirTerminal:SingleDuct:VAV:Reheat = TERMINALUNIT-PERIMETER_HI_1",
    "   ** Warning ** Since Zone Minimum Air Flow Input Method = FIXEDFLOWRATE, input for Constant Minimum Air Flow Fraction will be ignored.",
    "   **   ~~~   ** Occurs in AirTerminal:SingleDuct:VAV:Reheat = TERMINALUNIT-PERIMETER_HI_2",
    "   ** Warning ** Since Damper Heating Action = REVERSE, input for Maximum Flow Fraction During Reheat will be ignored.",
    "   **   ~~~   ** Occurs in AirTerminal:SingleDuct:VAV:Reheat = TERMINALUNIT-PERIMETER_HI_2",
    "   ** Warning ** Since Zone Minimum Air Flow Input Method = FIXEDFLOWRATE, input for Constant Minimum Air Flow Fraction will be ignored.",
    "   **   ~~~   ** Occurs in AirTerminal:SingleDuct:VAV:Reheat = TERMINALUNIT-PERIMETER_HI_3",
    "   ** Warning ** Since Damper Heating Action = REVERSE, input for Maximum Flow Fraction During Reheat will be ignored.",
    "   **   ~~~   ** Occurs in AirTerminal:SingleDuct:VAV:Reheat = TERMINALUNIT-PERIMETER_HI_3",
    "   ** Warning ** Since Zone Minimum Air Flow Input Method = FIXEDFLOWRATE, input for Constant Minimum Air Flow Fraction will be ignored.",
    "   **   ~~~   ** Occurs in AirTerminal:SingleDuct:VAV:Reheat = TERMINALUNIT-PERIMETER_HI_4",
    "   ** Warning ** Since Damper Heating Action = REVERSE, input for Maximum Flow Fraction During Reheat will be ignored.",
    "   **   ~~~   ** Occurs in AirTerminal:SingleDuct:VAV:Reheat = TERMINALUNIT-PERIMETER_HI_4",
    "   ** Warning ** Since Zone Minimum Air Flow Input Method = FIXEDFLOWRATE, input for Constant Minimum Air Flow Fraction will be ignored.",
    "   **   ~~~   ** Occurs in AirTerminal:SingleDuct:VAV:Reheat = TERMINALUNIT_PERIMETER_MID_1",
    "   ** Warning ** Since Damper Heating Action = REVERSE, input for Maximum Flow Fraction During Reheat will be ignored.",
    "   **   ~~~   ** Occurs in AirTerminal:SingleDuct:VAV:Reheat = TERMINALUNIT_PERIMETER_MID_1",
    "   ** Warning ** Since Zone Minimum Air Flow Input Method = FIXEDFLOWRATE, input for Constant Minimum Air Flow Fraction will be ignored.",
    "   **   ~~~   ** Occurs in AirTerminal:SingleDuct:VAV:Reheat = TERMINALUNIT_PERIMETER_MID_2",
    "   ** Warning ** Since Damper Heating Action = REVERSE, input for Maximum Flow Fraction During Reheat will be ignored.",
    "   **   ~~~   ** Occurs in AirTerminal:SingleDuct:VAV:Reheat = TERMINALUNIT_PERIMETER_MID_2",
    "   ** Warning ** Since Zone Minimum Air Flow Input Method = FIXEDFLOWRATE, input for Constant Minimum Air Flow Fraction will be ignored.",
    "   **   ~~~   ** Occurs in AirTerminal:SingleDuct:VAV:Reheat = TERMINALUNIT_PERIMTER_MID_3",
    "   ** Warning ** Since Damper Heating Action = REVERSE, input for Maximum Flow Fraction During Reheat will be ignored.",
    "   **   ~~~   ** Occurs in AirTerminal:SingleDuct:VAV:Reheat = TERMINALUNIT_PERIMTER_MID_3",
    "   ** Warning ** Since Zone Minimum Air Flow Input Method = FIXEDFLOWRATE, input for Constant Minimum Air Flow Fraction will be ignored.",
    "   **   ~~~   ** Occurs in AirTerminal:SingleDuct:VAV:Reheat = TERMINALUNIT_PERIMETER_MID_4",
    "   ** Warning ** Since Damper Heating Action = REVERSE, input for Maximum Flow Fraction During Reheat will be ignored.",
    "   **   ~~~   ** Occurs in AirTerminal:SingleDuct:VAV:Reheat = TERMINALUNIT_PERIMETER_MID_4",
    "   ** Warning ** Since Zone Minimum Air Flow Input Method = FIXEDFLOWRATE, input for Constant Minimum Air Flow Fraction will be ignored.",
    "   **   ~~~   ** Occurs in AirTerminal:SingleDuct:VAV:NoReheat = TERMINALUNIT-PROCESS SPC",
    "   ************* Beginning Plant Sizing Calculations",
    "   ** Warning ** Controller:MechanicalVentilation=\"BOTTOM VAV OACTRL MECH VENT CONTROLLER\", Zone OA/person rate",
    "   **   ~~~   ** For Zone=\"PERIMETER_BOT_ZN_1 THERMAL ZONE\".",
    "   **   ~~~   ** Zone outside air per person rate not set in Design Specification Outdoor Air Object=\"PERIMETER_BOT_ZN_1 THERMAL ZONE DESIGN SPECIFICATION OUTDOOR AIR\".",
    "   ** Warning ** Controller:MechanicalVentilation=\"BOTTOM VAV OACTRL MECH VENT CONTROLLER\", Zone OA/person rate",
    "   **   ~~~   ** For Zone=\"PERIMETER_BOT_ZN_2 THERMAL ZONE\".",
    "   **   ~~~   ** Zone outside air per person rate not set in Design Specification Outdoor Air Object=\"PERIMETER_BOT_ZN_2 THERMAL ZONE DESIGN SPECIFICATION OUTDOOR AIR\".",
    "   ** Warning ** Controller:MechanicalVentilation=\"BOTTOM VAV OACTRL MECH VENT CONTROLLER\", Zone OA/person rate",
    "   **   ~~~   ** For Zone=\"PERIMETER_BOT_ZN_3 THERMAL ZONE\".",
    "   **   ~~~   ** Zone outside air per person rate not set in Design Specification Outdoor Air Object=\"PERIMETER_BOT_ZN_3 THERMAL ZONE DESIGN SPECIFICATION OUTDOOR AIR\".",
    "   ** Warning ** Controller:MechanicalVentilation=\"BOTTOM VAV OACTRL MECH VENT CONTROLLER\", Zone OA/person rate",
    "   **   ~~~   ** For Zone=\"PERIMETER_BOT_ZN_4 THERMAL ZONE\".",
    "   **   ~~~   ** Zone outside air per person rate not set in Design Specification Outdoor Air Object=\"PERIMETER_BOT_ZN_4 THERMAL ZONE DESIGN SPECIFICATION OUTDOOR AIR\".",
    "   ** Warning ** In calculating the design coil UA for Coil:Cooling:Water BOTTOMVAVCOILCOOLING",
    "   **   ~~~   ** the coil bypass factor is unrealistically large;",
    "   **   ~~~   ** The initial design conditions are: Tair,in = 24.4812",
    "   **   ~~~   **                                    Wair,in = 1.094504E-002",
    "   **   ~~~   **                                    Twater,in = 6.6667",
    "   **   ~~~   **                                    Tair,out = 11.1883",
    "   **   ~~~   **                                    Wair,out = 8.500000E-003",
    "   ** Severe  ** Calculation of cooling coil design UA failed for coil BOTTOMVAVCOILCOOLING",
    "   **   ~~~   **   Bad starting values for UA",
    "   **   ~~~   **  Coil design UA set to 74070.234923 [W/C]",
    "   ** Warning ** In calculating the design coil UA for Coil:Cooling:Water HIVAVCOILCOOLING",
    "   **   ~~~   ** the coil bypass factor is unrealistically large;",
    "   **   ~~~   ** The initial design conditions are: Tair,in = 23.8736",
    "   **   ~~~   **                                    Wair,in = 9.779501E-003",
    "   **   ~~~   **                                    Twater,in = 6.6667",
    "   **   ~~~   **                                    Tair,out = 11.1850",
    "   **   ~~~   **                                    Wair,out = 8.500000E-003",
    "   ** Warning ** In calculating the design coil UA for Coil:Cooling:Water MIDVAVCOILCOOLING",
    "   **   ~~~   ** the coil bypass factor is unrealistically large;",
    "   **   ~~~   ** The initial design conditions are: Tair,in = 25.3407",
    "   **   ~~~   **                                    Wair,in = 9.754914E-003",
    "   **   ~~~   **                                    Twater,in = 6.6667",
    "   **   ~~~   **                                    Tair,out = 11.1849",
    "   **   ~~~   **                                    Wair,out = 8.500000E-003",
    "   ** Warning ** In calculating the design coil UA for Coil:Cooling:Water TOPVAVCOILCOOLING",
    "   **   ~~~   ** the coil bypass factor is unrealistically large;",
    "   **   ~~~   ** The initial design conditions are: Tair,in = 23.8631",
    "   **   ~~~   **                                    Wair,in = 9.841138E-003",
    "   **   ~~~   **                                    Twater,in = 6.6667",
    "   **   ~~~   **                                    Tair,out = 11.1852",
    "   **   ~~~   **                                    Wair,out = 8.500000E-003",
    "   ** Warning ** GetElectricEIRChillerInput: Chiller:Electric:EIR=\"WTRSCREW CHILLER\"",
    "   **   ~~~   ** Energy input ratio as a function of temperature curve output is not equal to 1.0 (+ or - 10%) at reference conditions.",
    "   **   ~~~   ** Curve output at reference conditions = 1.166",
    "   ** Warning ** GetElectricEIRChillerInput: Chiller:Electric:EIR=\"WTRCENTRIFUGAL CHILLER\"",
    "   **   ~~~   ** Capacity ratio as a function of temperature curve output is not equal to 1.0 (+ or - 10%) at reference conditions.",
    "   **   ~~~   ** Curve output at reference conditions = 0.870",
    "   ** Warning ** Check input. Pump nominal power or motor efficiency is set to 0, for pump={28F017A2-BA7D-4724-95CD-F153974DA95B}",
    "   ** Warning ** Output:Meter: invalid Key Name=\"DISTRICTCOOLING:FACILITY\" - not found.",
    "   ** Warning ** Output:Meter: invalid Key Name=\"DISTRICTHEATING:FACILITY\" - not found.",
    "   ** Warning ** Output:Meter:MeterFileOnly: invalid Key Name=\"NONCOMPLIANCELTG:INTERIORLIGHTS:ELECTRICITY\" - not found.",
    "   ** Warning ** Output:Meter:MeterFileOnly: invalid Key Name=\"HEATREJECTION:DISTRICTHEATING\" - not found.",
    "   ** Warning ** Output:Meter:MeterFileOnly: invalid Key Name=\"HEATRECOVERY:DISTRICTHEATING\" - not found.",
    "   ** Warning ** Output:Meter:MeterFileOnly: invalid Key Name=\"PROCESS:INTERIOREQUIPMENT:ELECTRICITY\" - not found.",
    "   ** Warning ** Output:Meter:MeterFileOnly: invalid Key Name=\"HUMIDIFIER:DISTRICTCOOLING\" - not found.",
    "   ** Warning ** Output:Meter:MeterFileOnly: invalid Key Name=\"INTERIORLIGHTS:DISTRICTHEATING\" - not found.",
    "   ** Warning ** Output:Meter:MeterFileOnly: invalid Key Name=\"WATERSYSTEMS:DISTRICTCOOLING\" - not found.",
    "   ** Warning ** Output:Meter:MeterFileOnly: invalid Key Name=\"HEATREJECTION:DISTRICTCOOLING\" - not found.",
    "   ** Warning ** Output:Meter:MeterFileOnly: invalid Key Name=\"INTERIORLIGHTS:GAS\" - not found.",
    "   ** Warning ** Output:Meter:MeterFileOnly: invalid Key Name=\"REFRIGERATION:ELECTRICITY\" - not found.",
    "   ** Warning ** Output:Meter:MeterFileOnly: invalid Key Name=\"REG LTG:EXTERIORLIGHTS:ELECTRICITY\" - not found.",
    "   ** Warning ** Output:Meter:MeterFileOnly: invalid Key Name=\"INTERIOREQUIPMENT:DISTRICTCOOLING\" - not found.",
    "   ** Warning ** Output:Meter:MeterFileOnly: invalid Key Name=\"COGENERATION:ELECTRICITY\" - not found.",
    "   ** Warning ** Output:Meter:MeterFileOnly: invalid Key Name=\"NONREG LTG:EXTERIORLIGHTS:ELECTRICITY\" - not found.",
    "   ** Warning ** Output:Meter:MeterFileOnly: invalid Key Name=\"COGENERATION:DISTRICTHEATING\" - not found.",
    "   ** Warning ** Output:Meter:MeterFileOnly: invalid Key Name=\"WATERSYSTEMS:DISTRICTHEATING\" - not found.",
    "   ** Warning ** Output:Meter:MeterFileOnly: invalid Key Name=\"HEATING:DISTRICTCOOLING\" - not found.",
    "   ** Warning ** Output:Meter:MeterFileOnly: invalid Key Name=\"COOLING:DISTRICTCOOLING\" - not found.",
    "   ** Warning ** Output:Meter:MeterFileOnly: invalid Key Name=\"HUMIDIFIER:DISTRICTHEATING\" - not found.",
    "   ** Warning ** Output:Meter:MeterFileOnly: invalid Key Name=\"HEATRECOVERY:DISTRICTCOOLING\" - not found.",
    "   ** Warning ** Output:Meter:MeterFileOnly: invalid Key Name=\"INTERNAL TRANSPORT:INTERIOREQUIPMENT:ELECTRICITY\" - not found.",
    "   ** Warning ** Output:Meter:MeterFileOnly: invalid Key Name=\"COGENERATION:DISTRICTCOOLING\" - not found.",
    "   ** Warning ** Output:Meter:MeterFileOnly: invalid Key Name=\"REFRIGERATION:DISTRICTCOOLING\" - not found.",
    "   ** Warning ** Output:Meter:MeterFileOnly: invalid Key Name=\"INTERIORLIGHTS:DISTRICTCOOLING\" - not found.",
    "   ** Warning ** Output:Meter:MeterFileOnly: invalid Key Name=\"PUMPS:DISTRICTHEATING\" - not found.",
    "   ** Warning ** Output:Meter:MeterFileOnly: invalid Key Name=\"EXTERIORLIGHTS:GAS\" - not found.",
    "   ** Warning ** Output:Meter:MeterFileOnly: invalid Key Name=\"HEATING:DISTRICTHEATING\" - not found.",
    "   ** Warning ** Output:Meter:MeterFileOnly: invalid Key Name=\"INTERIOREQUIPMENT:DISTRICTHEATING\" - not found.",
    "   ** Warning ** Output:Meter:MeterFileOnly: invalid Key Name=\"COOLING:DISTRICTHEATING\" - not found.",
    "   ** Warning ** Output:Meter:MeterFileOnly: invalid Key Name=\"RECEPTACLE:EXTERIOREQUIPMENT:GAS\" - not found.",
    "   ** Warning ** Output:Meter:MeterFileOnly: invalid Key Name=\"RECEPTACLE:EXTERIOREQUIPMENT:ELECTRICITY\" - not found.",
    "   ** Warning ** Output:Meter:MeterFileOnly: invalid Key Name=\"EXTERIORLIGHTS:ELECTRICITY\" - not found.",
    "   ** Warning ** Output:Meter:MeterFileOnly: invalid Key Name=\"EXTERIORLIGHTS:DISTRICTHEATING\" - not found.",
    "   ** Warning ** Output:Meter:MeterFileOnly: invalid Key Name=\"FANS:GAS\" - not found.",
    "   ** Warning ** Output:Meter:MeterFileOnly: invalid Key Name=\"COGENERATION:GAS\" - not found.",
    "   ** Warning ** Output:Meter:MeterFileOnly: invalid Key Name=\"HEATRECOVERY:GAS\" - not found.",
    "   ** Warning ** Output:Meter:MeterFileOnly: invalid Key Name=\"HUMIDIFIER:GAS\" - not found.",
    "   ** Warning ** Output:Meter:MeterFileOnly: invalid Key Name=\"HEATREJECTION:GAS\" - not found.",
    "   ** Warning ** Output:Meter:MeterFileOnly: invalid Key Name=\"DISTRICTHEATING:FACILITY\" - not found.",
    "   ** Warning ** Output:Meter:MeterFileOnly: invalid Key Name=\"COOLING:GAS\" - not found.",
    "   ** Warning ** Output:Meter:MeterFileOnly: invalid Key Name=\"INTERIOREQUIPMENT:GAS\" - not found.",
    "   ** Warning ** Output:Meter:MeterFileOnly: invalid Key Name=\"DISTRICTCOOLING:FACILITY\" - not found.",
    "   ** Warning ** Output:Meter:MeterFileOnly: invalid Key Name=\"EXTERIOREQUIPMENT:GAS\" - not found.",
    "   ** Warning ** Output:Meter:MeterFileOnly: invalid Key Name=\"HEATRECOVERY:ELECTRICITY\" - not found.",
    "   ** Warning ** Output:Meter:MeterFileOnly: invalid Key Name=\"HUMIDIFIER:ELECTRICITY\" - not found.",
    "   ** Warning ** Output:Meter:MeterFileOnly: invalid Key Name=\"EXTERIOREQUIPMENT:ELECTRICITY\" - not found.",
    "   ** Warning ** Output:Meter:MeterFileOnly: invalid Key Name=\"PUMPS:GAS\" - not found.",
    "   ** Warning ** Output:Meter:MeterFileOnly: invalid Key Name=\"FANS:DISTRICTHEATING\" - not found.",
    "   ** Warning ** Output:Meter:MeterFileOnly: invalid Key Name=\"PROCESS:EXTERIOREQUIPMENT:GAS\" - not found.",
    "   ** Warning ** Output:Meter:MeterFileOnly: invalid Key Name=\"PROCESS:INTERIOREQUIPMENT:GAS\" - not found.",
    "   ** Warning ** Output:Meter:MeterFileOnly: invalid Key Name=\"REFRIGERATION:DISTRICTHEATING\" - not found.",
    "   ** Warning ** Output:Meter:MeterFileOnly: invalid Key Name=\"RECEPTACLE:INTERIOREQUIPMENT:GAS\" - not found.",
    "   ** Warning ** Output:Meter:MeterFileOnly: invalid Key Name=\"REFRIG:INTERIOREQUIPMENT:ELECTRICITY\" - not found.",
    "   ** Warning ** Output:Meter:MeterFileOnly: invalid Key Name=\"REFRIG:EXTERIOREQUIPMENT:ELECTRICITY\" - not found.",
    "   ** Warning ** Output:Meter:MeterFileOnly: invalid Key Name=\"EXTERIOREQUIPMENT:DISTRICTHEATING\" - not found.",
    "   ** Warning ** Output:Meter:MeterFileOnly: invalid Key Name=\"PROCESS:EXTERIOREQUIPMENT:ELECTRICITY\" - not found.",
    "   ** Warning ** Output:Meter:MeterFileOnly: invalid Key Name=\"PUMPS:DISTRICTCOOLING\" - not found.",
    "   ** Warning ** Output:Meter:MeterFileOnly: invalid Key Name=\"WATERSYSTEMS:ELECTRICITY\" - not found.",
    "   ** Warning ** Output:Meter:MeterFileOnly: invalid Key Name=\"EXTERIOREQUIPMENT:DISTRICTCOOLING\" - not found.",
    "   ** Warning ** Output:Meter:MeterFileOnly: invalid Key Name=\"REFRIGERATION:GAS\" - not found.",
    "   ** Warning ** Output:Meter:MeterFileOnly: invalid Key Name=\"EXTERIORLIGHTS:DISTRICTCOOLING\" - not found.",
    "   ** Warning ** Output:Meter:MeterFileOnly: invalid Key Name=\"FANS:DISTRICTCOOLING\" - not found.",
    "   ** Warning ** Output:Meter:MeterFileOnly requested for \"Electricity:Facility\" (TimeStep), already on \"Output:Meter\". Will report to both eplusout.eso and eplusout.mtr",
    "   ************* Testing Individual Branch Integrity",
    "   ************* All Branches passed integrity testing",
    "   ************* Testing Individual Supply Air Path Integrity",
    "   ************* All Supply Air Paths passed integrity testing",
    "   ************* Testing Individual Return Air Path Integrity",
    "   ************* All Return Air Paths passed integrity testing",
    "   ************* No node connection errors were found.",
    "   ************* Beginning Simulation",
    "   ** Warning ** GetSpecificHeatGlycol: Temperature is out of range (too high) for fluid [WATER] specific heat **",
    "   **   ~~~   ** ..Called From:UpdatePlantLoopInterface,Temperature=[155.11], supplied data range=[0.00,125.00]",
    "   **   ~~~   **  Environment=SACRAMENTO-EXECUTIVE_724830_CZ2010, at Simulation time=01/01 00:00 - 00:15",
    "   ** Warning ** GetDensityGlycol: Temperature is out of range (too high) for fluid [WATER] density **",
    "   **   ~~~   ** ..Called From:NodeReportingCalc:CONDENSERWATER LOOP SUPPLY INLET NODE,Temperature=[155.11], supplied data range=[0.00,100.00]",
    "   **   ~~~   **  Environment=SACRAMENTO-EXECUTIVE_724830_CZ2010, at Simulation time=01/01 00:00 - 00:02",
    "   ** Warning ** Processing Monthly Tabular Reports: Variable names not valid for this simulation",
    "   **   ~~~   ** ...use Output:Diagnostics,DisplayExtraWarnings; to show more details on individual variables.",
    "   ** Warning ** GetSpecificHeatGlycol: Temperature is out of range (too low) for fluid [WATER] specific heat supplied values **",
    "   **   ~~~   ** ..Called From:PlantLoopSolver::EvaluateLoopSetPointLoad,Temperature=[-9.58], supplied data range=[0.00,125.00]",
    "   **   ~~~   **  Environment=SACRAMENTO-EXECUTIVE_724830_CZ2010, at Simulation time=01/01 00:26 - 00:28",
    "   ** Warning ** CoolingTower:VariableSpeed \"COOLING TOWER 1\" - Tower range temperature is outside model boundaries at 77.93.",
    "   **   ~~~   **  ...Valid range = 1.11 to 11.11. Occurrence info = SACRAMENTO-EXECUTIVE_724830_CZ2010, 01/01 00:26 - 00:28",
    "   **   ~~~   **  ...Tower range temperature passed to the model = 77.93048",
    "   **   ~~~   **  ...Range temperatures outside model boundaries may not adversely affect tower performance.",
    "   **   ~~~   **  ...This is not an unexpected occurrence when simulating actual conditions.",
    "   ** Warning ** CoolingTower:VariableSpeed \"COOLING TOWER 1\" - Inlet air wet-bulb temperature is outside model boundaries at -7.97.",
    "   **   ~~~   **  ...Valid range = -1.00 to 26.67. Occurrence info = SACRAMENTO-EXECUTIVE_724830_CZ2010, 01/01 00:26 - 00:28",
    "   **   ~~~   **  ...Inlet air wet-bulb temperature passed to the model = -1.000000",
    "   **   ~~~   **  ...Wet-bulb temperatures outside model boundaries may not adversely affect tower performance.",
    "   ** Warning ** CoolingTower:VariableSpeed \"COOLING TOWER 1\" - Tower approach temperature is outside model boundaries at 36.30.",
    "   **   ~~~   **  ...Valid range = 1.11 to 11.11. Occurrence info = SACRAMENTO-EXECUTIVE_724830_CZ2010, 01/01 00:26 - 00:28",
    "   **   ~~~   **  ...Tower approach temperature passed to the model = 36.30481",
    "   **   ~~~   **  ...Approach temperatures outside model boundaries may not adversely affect tower performance.",
    "   **   ~~~   **  ...This is not an unexpected occurrence when simulating actual conditions.",
    "   ** Warning ** CoolingTower:VariableSpeed \"COOLING TOWER 1\" - Inlet air wet-bulb temperature is outside model boundaries at -7.97.",
    "   **   ~~~   **  ...Valid range = -1.00 to 26.67. Occurrence info = SACRAMENTO-EXECUTIVE_724830_CZ2010, 01/01 00:28 - 00:30",
    "   **   ~~~   **  ...Inlet air wet-bulb temperature passed to the model = -1.000000",
    "   **   ~~~   **  ...Wet-bulb temperatures outside model boundaries may not adversely affect tower performance.",
    "   ** Warning ** CoolingTower:VariableSpeed \"COOLING TOWER 1\" - Inlet air wet-bulb temperature is outside model boundaries at -10.43.",
    "   **   ~~~   **  ...Valid range = -1.00 to 26.67. Occurrence info = SACRAMENTO-EXECUTIVE_724830_CZ2010, 01/01 00:30 - 00:33",
    "   **   ~~~   **  ...Inlet air wet-bulb temperature passed to the model = -1.000000",
    "   **   ~~~   **  ...Wet-bulb temperatures outside model boundaries may not adversely affect tower performance.",
    "   ** Warning ** CoolingTower:VariableSpeed \"COOLING TOWER 1\" - Inlet air wet-bulb temperature is outside model boundaries at -10.43.",
    "   **   ~~~   **  ...Valid range = -1.00 to 26.67. Occurrence info = SACRAMENTO-EXECUTIVE_724830_CZ2010, 01/01 00:33 - 00:36",
    "   **   ~~~   **  ...Inlet air wet-bulb temperature passed to the model = -1.000000",
    "   **   ~~~   **  ...Wet-bulb temperatures outside model boundaries may not adversely affect tower performance.",
    "   ** Warning ** CoolingTower:VariableSpeed \"COOLING TOWER 1\" - Inlet air wet-bulb temperature is outside model boundaries at -10.43.",
    "   **   ~~~   **  ...Valid range = -1.00 to 26.67. Occurrence info = SACRAMENTO-EXECUTIVE_724830_CZ2010, 01/01 00:36 - 00:39",
    "   **   ~~~   **  ...Inlet air wet-bulb temperature passed to the model = -1.000000",
    "   **   ~~~   **  ...Wet-bulb temperatures outside model boundaries may not adversely affect tower performance.",
    "   ** Warning ** SimHVAC: Maximum iterations (20) exceeded for all HVAC loops, at SACRAMENTO-EXECUTIVE_724830_CZ2010, 01/01 09:20 - 09:25",
    "   **   ~~~   ** The solution for one or more of the Air Loop HVAC systems did not appear to converge",
    "   **   ~~~   ** ...use Output:Diagnostics,DisplayExtraWarnings; to show more details on each max iteration exceeded.",
    "   ** Warning ** SimHVAC: Maximum iterations (20) exceeded for all HVAC loops, at SACRAMENTO-EXECUTIVE_724830_CZ2010, 01/01 09:25 - 09:30",
    "   **   ~~~   ** The solution for one or more of the Air Loop HVAC systems did not appear to converge",
    "   ** Warning ** SimHVAC: Maximum iterations (20) exceeded for all HVAC loops, at SACRAMENTO-EXECUTIVE_724830_CZ2010, 01/01 09:30 - 09:45",
    "   **   ~~~   ** The solution for one or more of the Air Loop HVAC systems did not appear to converge",
    "   ** Warning ** SimHVAC: Maximum iterations (20) exceeded for all HVAC loops, at SACRAMENTO-EXECUTIVE_724830_CZ2010, 01/01 09:30 - 09:35",
    "   **   ~~~   ** The solution for one or more of the Air Loop HVAC systems did not appear to converge",
    "   ** Warning ** SimHVAC: Maximum iterations (20) exceeded for all HVAC loops, at SACRAMENTO-EXECUTIVE_724830_CZ2010, 01/01 09:35 - 09:40",
    "   **   ~~~   ** The solution for one or more of the Air Loop HVAC systems did not appear to converge",
    "   ** Warning ** SimHVAC: Maximum iterations (20) exceeded for all HVAC loops, at SACRAMENTO-EXECUTIVE_724830_CZ2010, 01/01 09:40 - 09:45",
    "   **   ~~~   ** The solution for one or more of the Air Loop HVAC systems did not appear to converge",
    "   ** Warning ** SimHVAC: Maximum iterations (20) exceeded for all HVAC loops, at SACRAMENTO-EXECUTIVE_724830_CZ2010, 01/01 09:45 - 10:00",
    "   **   ~~~   ** The solution for one or more of the Air Loop HVAC systems did not appear to converge",
    "   ** Warning ** SimHVAC: Maximum iterations (20) exceeded for all HVAC loops, at SACRAMENTO-EXECUTIVE_724830_CZ2010, 01/01 10:00 - 10:15",
    "   **   ~~~   ** The solution for one or more of the Air Loop HVAC systems did not appear to converge",
    "   ** Warning ** SimHVAC: Maximum iterations (20) exceeded for all HVAC loops, at SACRAMENTO-EXECUTIVE_724830_CZ2010, 01/01 10:38 - 10:45",
    "   **   ~~~   ** The solution for one or more of the Air Loop HVAC systems did not appear to converge",
    "   ** Warning ** SimHVAC: Maximum iterations (20) exceeded for all HVAC loops, at SACRAMENTO-EXECUTIVE_724830_CZ2010, 01/01 11:00 - 11:15",
    "   **   ~~~   ** The solution for one or more of the Air Loop HVAC systems did not appear to converge",
    "   ** Warning ** SimHVAC: Maximum iterations (20) exceeded for all HVAC loops, at SACRAMENTO-EXECUTIVE_724830_CZ2010, 01/01 11:15 - 11:30",
    "   **   ~~~   ** The solution for one or more of the Air Loop HVAC systems did not appear to converge",
    "   ** Warning ** SimHVAC: Maximum iterations (20) exceeded for all HVAC loops, at SACRAMENTO-EXECUTIVE_724830_CZ2010, 01/01 11:30 - 11:45",
    "   **   ~~~   ** The solution for one or more of the Air Loop HVAC systems did not appear to converge",
    "   ** Warning ** SimHVAC: Maximum iterations (20) exceeded for all HVAC loops, at SACRAMENTO-EXECUTIVE_724830_CZ2010, 01/01 11:45 - 12:00",
    "   **   ~~~   ** The solution for one or more of the Air Loop HVAC systems did not appear to converge",
    "   ** Warning ** SimHVAC: Maximum iterations (20) exceeded for all HVAC loops, at SACRAMENTO-EXECUTIVE_724830_CZ2010, 01/01 12:00 - 12:15",
    "   **   ~~~   ** The solution for one or more of the Air Loop HVAC systems did not appear to converge",
    "   ** Severe  ** FindRootSimpleController: Controller error for controller = \"CONTROLLER WATER COIL 2\"",
    "   **   ~~~   **  Environment=SACRAMENTO-EXECUTIVE_724830_CZ2010, at Simulation time=01/07 07:15 - 07:30",
    "   **   ~~~   **   Controller function is inconsistent with user specified controller action = Reverse action",
    "   **   ~~~   **   Actuator will be set to maximum action",
    "   **   ~~~   ** Controller control type=Temperature",
    "   **   ~~~   ** Controller temperature setpoint = 15.08 [C]",
    "   **   ~~~   ** Controller sensed temperature = 15.45 [C]",
    "   **   ~~~   ** Controller actuator mass flow rate set to 9.55 [kg/s]",
    "   **   ~~~   ** Controller actuator temperature = 15.54 [C]",
    "   **   ~~~   **   Note: Chilled water coils should be reverse action and the entering chilled",
    "   **   ~~~   **         water temperature (controller actuator temperature) should be below the setpoint temperature",
    "   **   ~~~   **   Note: Hot water coils should be normal action and the entering hot",
    "   **   ~~~   **         water temperature (controller actuator temperature) should be above the setpoint temperature",
    "   ** Severe  ** FindRootSimpleController: Controller error for controller = \"CONTROLLER WATER COIL 6\"",
    "   **   ~~~   **  Environment=SACRAMENTO-EXECUTIVE_724830_CZ2010, at Simulation time=03/26 23:15 - 23:30",
    "   **   ~~~   **   Controller function is inconsistent with user specified controller action = Reverse action",
    "   **   ~~~   **   Actuator will be set to maximum action",
    "   **   ~~~   ** Controller control type=Temperature",
    "   **   ~~~   ** Controller temperature setpoint = 15.21 [C]",
    "   **   ~~~   ** Controller sensed temperature = 16.51 [C]",
    "   **   ~~~   ** Controller actuator mass flow rate set to 36.27 [kg/s]",
    "   **   ~~~   ** Controller actuator temperature = 16.51 [C]",
    "   **   ~~~   **   Note: Chilled water coils should be reverse action and the entering chilled",
    "   **   ~~~   **         water temperature (controller actuator temperature) should be below the setpoint temperature",
    "   **   ~~~   **   Note: Hot water coils should be normal action and the entering hot",
    "   **   ~~~   **         water temperature (controller actuator temperature) should be above the setpoint temperature",
    "   ** Severe  ** FindRootSimpleController: Controller error for controller = \"CONTROLLER WATER COIL 4\"",
    "   **   ~~~   **  Environment=SACRAMENTO-EXECUTIVE_724830_CZ2010, at Simulation time=04/12 05:00 - 05:15",
    "   **   ~~~   **   Controller function is inconsistent with user specified controller action = Reverse action",
    "   **   ~~~   **   Actuator will be set to maximum action",
    "   **   ~~~   ** Controller control type=Temperature",
    "   **   ~~~   ** Controller temperature setpoint = 15.55 [C]",
    "   **   ~~~   ** Controller sensed temperature = 18.42 [C]",
    "   **   ~~~   ** Controller actuator mass flow rate set to 15.74 [kg/s]",
    "   **   ~~~   ** Controller actuator temperature = 18.42 [C]",
    "   **   ~~~   **   Note: Chilled water coils should be reverse action and the entering chilled",
    "   **   ~~~   **         water temperature (controller actuator temperature) should be below the setpoint temperature",
    "   **   ~~~   **   Note: Hot water coils should be normal action and the entering hot",
    "   **   ~~~   **         water temperature (controller actuator temperature) should be above the setpoint temperature",
    "   ** Severe  ** FindRootSimpleController: Controller error for controller = \"CONTROLLER WATER COIL 8\"",
    "   **   ~~~   **  Environment=SACRAMENTO-EXECUTIVE_724830_CZ2010, at Simulation time=05/03 09:15 - 09:22",
    "   **   ~~~   **   Controller function is inconsistent with user specified controller action = Reverse action",
    "   **   ~~~   **   Actuator will be set to maximum action",
    "   **   ~~~   ** Controller control type=Temperature",
    "   **   ~~~   ** Controller temperature setpoint = 15.21 [C]",
    "   **   ~~~   ** Controller sensed temperature = 19.33 [C]",
    "   **   ~~~   ** Controller actuator mass flow rate set to 7.25 [kg/s]",
    "   **   ~~~   ** Controller actuator temperature = 19.36 [C]",
    "   **   ~~~   **   Note: Chilled water coils should be reverse action and the entering chilled",
    "   **   ~~~   **         water temperature (controller actuator temperature) should be below the setpoint temperature",
    "   **   ~~~   **   Note: Hot water coils should be normal action and the entering hot",
    "   **   ~~~   **         water temperature (controller actuator temperature) should be above the setpoint temperature",
    "   ** Warning ** CoolingTower:VariableSpeed \"COOLING TOWER 1\" - Cooling tower air flow rate ratio calculation failed ",
    "   **   ~~~   ** ...with conditions as Twb = 23.73, Trange =  5.59, Tapproach =  4.61, and water flow rate ratio =  1.05",
    "   **   ~~~   ** ...a solution could not be found within the valid range of air flow rate ratios",
    "   **   ~~~   **  ...Valid air flow rate ratio range =  0.20 to 1.0.",
    "   **   ~~~   **  Environment=SACRAMENTO-EXECUTIVE_724830_CZ2010, at Simulation time=07/08 10:00 - 10:15",
    "   **   ~~~   ** ...Consider modifying the design approach or design range temperature for this tower.",
    "   ** Severe  ** FindRootSimpleController: Controller error for controller = \"CONTROLLER WATER COIL 9\"",
    "   **   ~~~   **  Environment=SACRAMENTO-EXECUTIVE_724830_CZ2010, at Simulation time=08/16 05:00 - 05:15",
    "   **   ~~~   **   Controller function is inconsistent with user specified controller action = Reverse action",
    "   **   ~~~   **   Actuator will be set to maximum action",
    "   **   ~~~   ** Controller control type=Temperature",
    "   **   ~~~   ** Controller temperature setpoint = 15.04 [C]",
    "   **   ~~~   ** Controller sensed temperature = 16.72 [C]",
    "   **   ~~~   ** Controller actuator mass flow rate set to 103.13 [kg/s]",
    "   **   ~~~   ** Controller actuator temperature = 17.32 [C]",
    "   **   ~~~   **   Note: Chilled water coils should be reverse action and the entering chilled",
    "   **   ~~~   **         water temperature (controller actuator temperature) should be below the setpoint temperature",
    "   **   ~~~   **   Note: Hot water coils should be normal action and the entering hot",
    "   **   ~~~   **         water temperature (controller actuator temperature) should be above the setpoint temperature",
    "   ** Severe  ** Plant temperatures are getting far too hot, check controls and relative loads and capacities",
    "   **   ~~~   **  Environment=SACRAMENTO-EXECUTIVE_724830_CZ2010, at Simulation time=12/20 04:38 - 04:39",
    "   **   ~~~   ** PlantLoop Name (SupplySide)= CONDENSERWATER LOOP",
    "   **   ~~~   ** PlantLoop Setpoint Temperature=28.3 {C}",
    "   **   ~~~   ** PlantLoop Inlet Node (SupplySide) does not have a Setpoint.",
    "   **   ~~~   ** PlantLoop Inlet Node (DemandSide) does not have a Setpoint.",
    "   **   ~~~   ** PlantLoop Outlet Node (SupplySide) has a Setpoint.",
    "   **   ~~~   ** PlantLoop Outlet Node (DemandSide) does not have a Setpoint.",
    "   **   ~~~   ** PlantLoop Outlet Node (SupplySide) \"CONDENSERWATER LOOP SUPPLY MIXER OUTLET NODE\" has temperature=300.0 {C}",
    "   **   ~~~   ** PlantLoop  Inlet Node (SupplySide) \"CONDENSERWATER LOOP SUPPLY INLET NODE\" has temperature=300.0 {C}",
    "   **   ~~~   ** PlantLoop Minimum Temperature=0.0 {C}",
    "   **   ~~~   ** PlantLoop Maximum Temperature=100.0 {C}",
    "   **   ~~~   ** PlantLoop Flow Request (SupplySide)=0.0 {kg/s}",
    "   **   ~~~   ** PlantLoop Flow Request (DemandSide)=0.0 {kg/s}",
    "   **   ~~~   ** PlantLoop Node (SupplySide) \"CONDENSERWATER LOOP SUPPLY MIXER OUTLET NODE\" has mass flow rate =0.0 {kg/s}",
    "   **   ~~~   ** PlantLoop PumpHeat (SupplySide)=0.0 {W}",
    "   **   ~~~   ** PlantLoop PumpHeat (DemandSide)=0.0 {W}",
    "   **   ~~~   ** PlantLoop Cooling Demand=0.0 {W}",
    "   **   ~~~   ** PlantLoop Heating Demand=0.0 {W}",
    "   **   ~~~   ** PlantLoop Demand not Dispatched=0.0 {W}",
    "   **   ~~~   ** PlantLoop Unmet Demand=0.0 {W}",
    "   **   ~~~   ** PlantLoop Capacity=11555772.2 {W}",
    "   **   ~~~   ** PlantLoop Capacity (SupplySide)=11555772.2 {W}",
    "   **   ~~~   ** PlantLoop Capacity (DemandSide)=0.0 {W}",
    "   **   ~~~   ** PlantLoop Operation Scheme=CONDENSERWATER LOOP OPERATION SCHEMES",
    "   **   ~~~   ** PlantLoop Operation Dispatched Load = 0.0 {W}",
    "   **   ~~~   ** PlantLoop Operation Dispatched Load (SupplySide)= 0.0 {W}",
    "   **   ~~~   ** PlantLoop Operation Dispatched Load (DemandSide)= 0.0 {W}",
    "   **   ~~~   ** Branches on the Loop.",
    "   **   ~~~   ** Demand Branches:",
    "   **   ~~~   **   CONDENSERWATER LOOP DEMAND INLET BRANCH",
    "   **   ~~~   **     Components on Branch:",
    "   **   ~~~   **       PIPE:ADIABATIC:CONDENSERWATER LOOP DEMAND INLET PIPE",
    "   **   ~~~   **   CONDENSERWATER LOOP DEMAND BRANCH 1",
    "   **   ~~~   **     Components on Branch:",
    "   **   ~~~   **       CHILLER:ELECTRIC:EIR:WTRSCREW CHILLER",
    "   **   ~~~   **   CONDENSERWATER LOOP DEMAND BRANCH 2",
    "   **   ~~~   **     Components on Branch:",
    "   **   ~~~   **       CHILLER:ELECTRIC:EIR:WTRCENTRIFUGAL CHILLER",
    "   **   ~~~   **   CONDENSERWATER LOOP DEMAND BYPASS BRANCH",
    "   **   ~~~   **     Components on Branch:",
    "   **   ~~~   **       PIPE:ADIABATIC:CONDENSERWATER LOOP DEMAND BYPASS PIPE",
    "   **   ~~~   **   CONDENSERWATER LOOP DEMAND OUTLET BRANCH",
    "   **   ~~~   **     Components on Branch:",
    "   **   ~~~   **       PIPE:ADIABATIC:CONDENSERWATER LOOP DEMAND OUTLET PIPE",
    "   **   ~~~   ** Supply Branches:",
    "   **   ~~~   **   CONDENSERWATER LOOP SUPPLY INLET BRANCH",
    "   **   ~~~   **     Components on Branch:",
    "   **   ~~~   **       PIPE:ADIABATIC:CONDENSERWATER LOOP SUPPLY INLET PIPE",
    "   **   ~~~   **   CONDENSERWATER LOOP SUPPLY BRANCH 1",
    "   **   ~~~   **     Components on Branch:",
    "   **   ~~~   **       PUMP:CONSTANTSPEED:CT PUMP 1",
    "   **   ~~~   **       COOLINGTOWER:VARIABLESPEED:COOLING TOWER 1",
    "   **   ~~~   **   CONDENSERWATER LOOP SUPPLY BRANCH 2",
    "   **   ~~~   **     Components on Branch:",
    "   **   ~~~   **       PUMP:CONSTANTSPEED:CT PUMP 2",
    "   **   ~~~   **       COOLINGTOWER:VARIABLESPEED:COOLING TOWER 2",
    "   **   ~~~   **   CONDENSERWATER LOOP SUPPLY OUTLET BRANCH",
    "   **   ~~~   **     Components on Branch:",
    "   **   ~~~   **       PIPE:ADIABATIC:CONDENSERWATER LOOP SUPPLY OUTLET PIPE",
    "   **   ~~~   ** *************************",
    "   **   ~~~   ** Possible things to look for to correct this problem are:",
    "   **   ~~~   **   Capacity, Operation Scheme, Mass flow problems, Pump Heat building up over time.",
    "   **   ~~~   **   Try a shorter runperiod to stop before it fatals and look at",
    "   **   ~~~   **     lots of node time series data to see what is going wrong.",
    "   **   ~~~   **   If this is happening during Warmup, you can use Output:Diagnostics,ReportDuringWarmup;",
    "   **   ~~~   **   This is detected at the loop level, but the typical problems are in the components.",
    "   **  Fatal  ** CheckForRunawayPlantTemps: Simulation terminated because of run away plant temperatures, too hot",
    "   ...Summary of Errors that led to program termination:",
    "   ..... Reference severe error count=404",
    "   ..... Last severe error=Plant temperatures are getting far too hot, check controls and relative loads and capacities",
    "   *************",
    "   ************* ===== Recurring Error Summary =====",
    "   ************* The following recurring error messages occurred.",
    "   *************",
    "   *************  ** Warning ** Plant loop exceeding upper temperature limit, PlantLoop=\"CONDENSERWATER LOOP\"",
    "   *************  **   ~~~   **   This error occurred 17598 total times;",
    "   *************  **   ~~~   **   during Warmup 1159 times;",
    "   *************  **   ~~~   **   during Sizing 0 times.",
    "   *************  **   ~~~   **   Max=300.036458",
    "   *************",
    "   *************  ** Warning ** GetSpecificHeatGlycol: Temperature out of range (too high) for fluid [WATER] specific heat **",
    "   *************  **   ~~~   **   This error occurred 1509750 total times;",
    "   *************  **   ~~~   **   during Warmup 0 times;",
    "   *************  **   ~~~   **   during Sizing 0 times.",
    "   *************  **   ~~~   **   Max=52907.566251 {C}  Min=125.00283 {C}",
    "   *************",
    "   *************  ** Warning ** GetDensityGlycol: Temperature out of range (too high) for fluid [WATER] density **",
    "   *************  **   ~~~   **   This error occurred 457023 total times;",
    "   *************  **   ~~~   **   during Warmup 0 times;",
    "   *************  **   ~~~   **   during Sizing 0 times.",
    "   *************  **   ~~~   **   Max=300.036458 {C}  Min=100.000246 {C}",
    "   *************",
    "   *************  ** Warning ** GetSpecificHeatGlycol: Temperature out of range (too low) for fluid [WATER] specific heat **",
    "   *************  **   ~~~   **   This error occurred 302974 total times;",
    "   *************  **   ~~~   **   during Warmup 0 times;",
    "   *************  **   ~~~   **   during Sizing 0 times.",
    "   *************  **   ~~~   **   Max=-3.621237E-006 {C}  Min=-209976.740392 {C}",
    "   *************",
    "   *************  ** Warning ** CoolingTower:VariableSpeed \"COOLING TOWER 1\" - Tower range temperature is out of range error continues...",
    "   *************  **   ~~~   **   This error occurred 13298 total times;",
    "   *************  **   ~~~   **   during Warmup 0 times;",
    "   *************  **   ~~~   **   during Sizing 0 times.",
    "   *************  **   ~~~   **   Max=205.782481  Min=0.119105",
    "   *************",
    "   *************  ** Warning ** CoolingTower:VariableSpeed \"COOLING TOWER 1\" - Tower approach temperature is out of range error continues...",
    "   *************  **   ~~~   **   This error occurred 24930 total times;",
    "   *************  **   ~~~   **   during Warmup 0 times;",
    "   *************  **   ~~~   **   during Sizing 0 times.",
    "   *************  **   ~~~   **   Max=51.531594  Min=11.111689",
    "   *************",
    "   *************  ** Warning ** CoolingTower:VariableSpeed \"COOLING TOWER 1\" - Inlet air wet-bulb temperature is out of range error continues...",
    "   *************  **   ~~~   **   This error occurred 11765 total times;",
    "   *************  **   ~~~   **   during Warmup 0 times;",
    "   *************  **   ~~~   **   during Sizing 0 times.",
    "   *************  **   ~~~   **   Max=26.940529  Min=-23.19826",
    "   *************",
    "   *************  ** Warning ** SimHVAC: Exceeding Maximum iterations for all HVAC loops, during SACRAMENTO-EXECUTIVE_724830_CZ2010 continues",
    "   *************  **   ~~~   **   This error occurred 8180 total times;",
    "   *************  **   ~~~   **   during Warmup 0 times;",
    "   *************  **   ~~~   **   during Sizing 0 times.",
    "   *************",
    "   *************  ** Severe  ** FindRootSimpleController: Previous controller action error continues for controller = CONTROLLER WATER COIL 2",
    "   *************  **   ~~~   **   This error occurred 122 total times;",
    "   *************  **   ~~~   **   during Warmup 0 times;",
    "   *************  **   ~~~   **   during Sizing 0 times.",
    "   *************",
    "   *************  ** Severe  ** FindRootSimpleController: Previous controller action error continues for controller = CONTROLLER WATER COIL 6",
    "   *************  **   ~~~   **   This error occurred 168 total times;",
    "   *************  **   ~~~   **   during Warmup 0 times;",
    "   *************  **   ~~~   **   during Sizing 0 times.",
    "   *************",
    "   *************  ** Severe  ** FindRootSimpleController: Previous controller action error continues for controller = CONTROLLER WATER COIL 4",
    "   *************  **   ~~~   **   This error occurred 54 total times;",
    "   *************  **   ~~~   **   during Warmup 0 times;",
    "   *************  **   ~~~   **   during Sizing 0 times.",
    "   *************",
    "   *************  ** Severe  ** FindRootSimpleController: Previous controller action error continues for controller = CONTROLLER WATER COIL 8",
    "   *************  **   ~~~   **   This error occurred 52 total times;",
    "   *************  **   ~~~   **   during Warmup 0 times;",
    "   *************  **   ~~~   **   during Sizing 0 times.",
    "   *************",
    "   *************  ** Warning ** CoolingTower:VariableSpeed \"COOLING TOWER 1\" - Cooling tower air flow rate ratio calculation failed error continues.",
    "   *************  **   ~~~   **   This error occurred 5 total times;",
    "   *************  **   ~~~   **   during Warmup 0 times;",
    "   *************  **   ~~~   **   during Sizing 0 times.",
    "   *************",
    "   *************  ** Severe  ** FindRootSimpleController: Previous controller action error continues for controller = CONTROLLER WATER COIL 9",
    "   *************  **   ~~~   **   This error occurred 1 total times;",
    "   *************  **   ~~~   **   during Warmup 0 times;",
    "   *************  **   ~~~   **   during Sizing 0 times.",
    "   *************",
    "   ************* EnergyPlus Warmup Error Summary. During Warmup: 0 Warning; 0 Severe Errors.",
    "   ************* EnergyPlus Sizing Error Summary. During Sizing: 94 Warning; 0 Severe Errors.",
    "   ************* EnergyPlus Terminated--Fatal Error Detected. 2345716 Warning; 404 Severe Errors; "
  ],
  "seed_file": "in.osm",
  "steps": [
    {
      "arguments": {

      },
      "measure_dir_name": "openstudio_results"
    }
  ],
  "weather_file": "../../weatherdata/USA_IL_Chicago-OHare.Intl.AP.725300_TMY3.epw"
}