{
  "completed_status": "Success",
  "current_step": 1,
  "eplusout_err": [
    "Program Version,EnergyPlus, Version 9.4.0-4856dd3d6e, ",
    "   ************* Beginning Zone Sizing Calculations",
    "   ** Warning ** ProcessScheduleInput: Schedule:Day:Interval=\"SCHEDULE DAY 2\", Blank Schedule Type Limits Name input -- will not be validated.",
    "   ** Warning ** ProcessScheduleInput: Schedule:Day:Interval=\"SCHEDULE DAY 3\", Blank Schedule Type Limits Name input -- will not be validated.",
    "   ** Warning ** ProcessScheduleInput: Schedule:Day:Interval=\"SCHEDULE DAY 4\", Blank Schedule Type Limits Name input -- will not be validated.",
    "   ** Warning ** ProcessScheduleInput: Schedule:Day:Interval=\"SCHEDULE DAY 5\", Blank Schedule Type Limits Name input -- will not be validated.",
    "   ** Warning ** ProcessScheduleInput: Schedule:Constant=\"ALWAYS ON DISCRETE\", Blank Schedule Type Limits Name input -- will not be validated.",
    "   ** Warning ** ProcessScheduleInput: Schedule:Constant=\"ALWAYS OFF DISCRETE\", Blank Schedule Type Limits Name input -- will not be validated.",
    "   ** Warning ** ProcessScheduleInput: Schedule:Constant=\"ALWAYS ON CONTINUOUS\", Blank Schedule Type Limits Name input -- will not be validated.",
    "   ** Warning ** GetHTSurfaceData: Surfaces with interface to Ground found but no \"Ground Temperatures\" were input.",
    "   **   ~~~   ** Found first in surface=SURFACE 1",
    "   **   ~~~   ** Defaults, constant throughout the year of (18.0) will be used.",
    "   ** Warning ** CheckUsedConstructions: There are 9 nominally unused constructions in input.",
    "   **   ~~~   ** Each Unused construction is shown.",
    "   ************* Construction=000_EXTERIOR DOOR",
    "   ************* Construction=000_EXTERIOR WINDOW",
    "   ************* Construction=000_INTERIOR CEILING",
    "   ************* Construction=000_INTERIOR DOOR",
    "   ************* Construction=000_INTERIOR FLOOR",
    "   ************* Construction=000_INTERIOR PARTITION",
    "   ************* Construction=000_INTERIOR WALL",
    "   ************* Construction=000_INTERIOR WINDOW",
    "   ************* Construction=AIR_WALL_CONSTRUCTIONAIRBOUNDARY",
    "   ** Warning ** Output:Meter: invalid Key Name=\"GAS:FACILITY\" - not found.",
    "   ** Warning ** Output:Meter:MeterFileOnly: invalid Key Name=\"GAS:FACILITY\" - not found.",
    "   ** Warning ** Output:Meter:MeterFileOnly requested for \"Electricity:Facility\" (TimeStep), already on \"Output:Meter\". Will report to both eplusout.eso and eplusout.mtr",
    "   ************* Testing Individual Branch Integrity",
    "   ************* All Branches passed integrity testing",
    "   ************* Testing Individual Supply Air Path Integrity",
    "   ************* All Supply Air Paths passed integrity testing",
    "   ************* Testing Individual Return Air Path Integrity",
    "   ************* All Return Air Paths passed integrity testing",
    "   ************* No node connection errors were found.",
    "   ************* Beginning Simulation",
    "   ** Warning ** Processing Monthly Tabular Reports: BUILDING ENERGY PERFORMANCE - ELECTRICITY",
    "   **   ~~~   ** ..Variable name=EXTERIORLIGHTS:ELECTRICITY not valid for this simulation.",
    "   **   ~~~   ** ..Variables not valid for this simulation will have \"[Invalid/Undefined]\" in the Units Column of the Table Report.",
    "   ** Warning ** Processing Monthly Tabular Reports: BUILDING ENERGY PERFORMANCE - ELECTRICITY",
    "   **   ~~~   ** ..Variable name=EXTERIOREQUIPMENT:ELECTRICITY not valid for this simulation.",
    "   ** Warning ** Processing Monthly Tabular Reports: BUILDING ENERGY PERFORMANCE - ELECTRICITY",
    "   **   ~~~   ** ..Variable name=PUMPS:ELECTRICITY not valid for this simulation.",
    "   ** Warning ** Processing Monthly Tabular Reports: BUILDING ENERGY PERFORMANCE - ELECTRICITY",
    "   **   ~~~   ** ..Variable name=HEATING:ELECTRICITY not valid for this simulation.",
    "   ** Warning ** Processing Monthly Tabular Reports: BUILDING ENERGY PERFORMANCE - ELECTRICITY",
    "   **   ~~~   ** ..Variable name=COOLING:ELECTRICITY not valid for this simulation.",
    "   ** Warning ** Processing Monthly Tabular Reports: BUILDING ENERGY PERFORMANCE - ELECTRICITY",
    "   **   ~~~   ** ..Variable name=HEATREJECTION:ELECTRICITY not valid for this simulation.",
    "   ** Warning ** Processing Monthly Tabular Reports: BUILDING ENERGY PERFORMANCE - ELECTRICITY",
    "   **   ~~~   ** ..Variable name=HUMIDIFIER:ELECTRICITY not valid for this simulation.",
    "   ** Warning ** Processing Monthly Tabular Reports: BUILDING ENERGY PERFORMANCE - ELECTRICITY",
    "   **   ~~~   ** ..Variable name=HEATRECOVERY:ELECTRICITY not valid for this simulation.",
    "   ** Warning ** Processing Monthly Tabular Reports: BUILDING ENERGY PERFORMANCE - ELECTRICITY",
    "   **   ~~~   ** ..Variable name=WATERSYSTEMS:ELECTRICITY not valid for this simulation.",
    "   ** Warning ** Processing Monthly Tabular Reports: BUILDING ENERGY PERFORMANCE - ELECTRICITY",
    "   **   ~~~   ** ..Variable name=COGENERATION:ELECTRICITY not valid for this simulation.",
    "   ** Warning ** Processing Monthly Tabular Reports: BUILDING ENERGY PERFORMANCE - ELECTRICITY",
    "   **   ~~~   ** ..Variable name=REFRIGERATION:ELECTRICITY not valid for this simulation.",
    "   ** Warning ** Processing Monthly Tabular Reports: BUILDING ENERGY PERFORMANCE - ELECTRICITY",
    "   **   ~~~   ** ..Variable name=EXTERIORLIGHTS:ELECTRICITY not valid for this simulation.",
    "   **   ~~~   ** ..i.e., Variable name=Meter:EXTERIORLIGHTS:ELECTRICITY not valid for this simulation.",
    "   ** Warning ** Processing Monthly Tabular Reports: BUILDING ENERGY PERFORMANCE - ELECTRICITY",
    "   **   ~~~   ** ..Variable name=EXTERIOREQUIPMENT:ELECTRICITY not valid for this simulation.",
    "   **   ~~~   ** ..i.e., Variable name=Meter:EXTERIOREQUIPMENT:ELECTRICITY not valid for this simulation.",
    "   ** Warning ** Processing Monthly Tabular Reports: BUILDING ENERGY PERFORMANCE - ELECTRICITY",
    "   **   ~~~   ** ..Variable name=PUMPS:ELECTRICITY not valid for this simulation.",
    "   **   ~~~   ** ..i.e., Variable name=Meter:PUMPS:ELECTRICITY not valid for this simulation.",
    "   ** Warning ** Processing Monthly Tabular Reports: BUILDING ENERGY PERFORMANCE - ELECTRICITY",
    "   **   ~~~   ** ..Variable name=HEATING:ELECTRICITY not valid for this simulation.",
    "   **   ~~~   ** ..i.e., Variable name=Meter:HEATING:ELECTRICITY not valid for this simulation.",
    "   ** Warning ** Processing Monthly Tabular Reports: BUILDING ENERGY PERFORMANCE - ELECTRICITY",
    "   **   ~~~   ** ..Variable name=COOLING:ELECTRICITY not valid for this simulation.",
    "   **   ~~~   ** ..i.e., Variable name=Meter:COOLING:ELECTRICITY not valid for this simulation.",
    "   ** Warning ** Processing Monthly Tabular Reports: BUILDING ENERGY PERFORMANCE - ELECTRICITY",
    "   **   ~~~   ** ..Variable name=HEATREJECTION:ELECTRICITY not valid for this simulation.",
    "   **   ~~~   ** ..i.e., Variable name=Meter:HEATREJECTION:ELECTRICITY not valid for this simulation.",
    "   ** Warning ** Processing Monthly Tabular Reports: BUILDING ENERGY PERFORMANCE - ELECTRICITY",
    "   **   ~~~   ** ..Variable name=HUMIDIFIER:ELECTRICITY not valid for this simulation.",
    "   **   ~~~   ** ..i.e., Variable name=Meter:HUMIDIFIER:ELECTRICITY not valid for this simulation.",
    "   ** Warning ** Processing Monthly Tabular Reports: BUILDING ENERGY PERFORMANCE - ELECTRICITY",
    "   **   ~~~   ** ..Variable name=HEATRECOVERY:ELECTRICITY not valid for this simulation.",
    "   **   ~~~   ** ..i.e., Variable name=Meter:HEATRECOVERY:ELECTRICITY not valid for this simulation.",
    "   ** Warning ** Processing Monthly Tabular Reports: BUILDING ENERGY PERFORMANCE - ELECTRICITY",
    "   **   ~~~   ** ..Variable name=WATERSYSTEMS:ELECTRICITY not valid for this simulation.",
    "   **   ~~~   ** ..i.e., Variable name=Meter:WATERSYSTEMS:ELECTRICITY not valid for this simulation.",
    "   ** Warning ** Processing Monthly Tabular Reports: BUILDING ENERGY PERFORMANCE - ELECTRICITY",
    "   **   ~~~   ** ..Variable name=COGENERATION:ELECTRICITY not valid for this simulation.",
    "   **   ~~~   ** ..i.e., Variable name=Meter:COGENERATION:ELECTRICITY not valid for this simulation.",
    "   ** Warning ** Processing Monthly Tabular Reports: BUILDING ENERGY PERFORMANCE - ELECTRICITY",
    "   **   ~~~   ** ..Variable name=REFRIGERATION:ELECTRICITY not valid for this simulation.",
    "   **   ~~~   ** ..i.e., Variable name=Meter:REFRIGERATION:ELECTRICITY not valid for this simulation.",
    "   ** Warning ** Processing Monthly Tabular Reports: BUILDING ENERGY PERFORMANCE - NATURAL GAS",
    "   **   ~~~   ** ..Variable name=INTERIOREQUIPMENT:GAS not valid for this simulation.",
    "   ** Warning ** Processing Monthly Tabular Reports: BUILDING ENERGY PERFORMANCE - NATURAL GAS",
    "   **   ~~~   ** ..Variable name=EXTERIOREQUIPMENT:GAS not valid for this simulation.",
    "   ** Warning ** Processing Monthly Tabular Reports: BUILDING ENERGY PERFORMANCE - NATURAL GAS",
    "   **   ~~~   ** ..Variable name=HEATING:GAS not valid for this simulation.",
    "   ** Warning ** Processing Monthly Tabular Reports: BUILDING ENERGY PERFORMANCE - NATURAL GAS",
    "   **   ~~~   ** ..Variable name=COOLING:GAS not valid for this simulation.",
    "   ** Warning ** Processing Monthly Tabular Reports: BUILDING ENERGY PERFORMANCE - NATURAL GAS",
    "   **   ~~~   ** ..Variable name=WATERSYSTEMS:GAS not valid for this simulation.",
    "   ** Warning ** Processing Monthly Tabular Reports: BUILDING ENERGY PERFORMANCE - NATURAL GAS",
    "   **   ~~~   ** ..Variable name=COGENERATION:GAS not valid for this simulation.",
    "   ** Warning ** Processing Monthly Tabular Reports: BUILDING ENERGY PERFORMANCE - DISTRICT HEATING",
    "   **   ~~~   ** ..Variable name=INTERIORLIGHTS:DISTRICTHEATING not valid for this simulation.",
    "   ** Warning ** Processing Monthly Tabular Reports: BUILDING ENERGY PERFORMANCE - DISTRICT HEATING",
    "   **   ~~~   ** ..Variable name=EXTERIORLIGHTS:DISTRICTHEATING not valid for this simulation.",
    "   ** Warning ** Processing Monthly Tabular Reports: BUILDING ENERGY PERFORMANCE - DISTRICT HEATING",
    "   **   ~~~   ** ..Variable name=INTERIOREQUIPMENT:DISTRICTHEATING not valid for this simulation.",
    "   ** Warning ** Processing Monthly Tabular Reports: BUILDING ENERGY PERFORMANCE - DISTRICT HEATING",
    "   **   ~~~   ** ..Variable name=EXTERIOREQUIPMENT:DISTRICTHEATING not valid for this simulation.",
    "   ** Warning ** Processing Monthly Tabular Reports: BUILDING ENERGY PERFORMANCE - DISTRICT HEATING",
    "   **   ~~~   ** ..Variable name=FANS:DISTRICTHEATING not valid for this simulation.",
    "   ** Warning ** Processing Monthly Tabular Reports: BUILDING ENERGY PERFORMANCE - DISTRICT HEATING",
    "   **   ~~~   ** ..Variable name=PUMPS:DISTRICTHEATING not valid for this simulation.",
    "   ** Warning ** Processing Monthly Tabular Reports: BUILDING ENERGY PERFORMANCE - DISTRICT HEATING",
    "   **   ~~~   ** ..Variable name=COOLING:DISTRICTHEATING not valid for this simulation.",
    "   ** Warning ** Processing Monthly Tabular Reports: BUILDING ENERGY PERFORMANCE - DISTRICT HEATING",
    "   **   ~~~   ** ..Variable name=HEATREJECTION:DISTRICTHEATING not valid for this simulation.",
    "   ** Warning ** Processing Monthly Tabular Reports: BUILDING ENERGY PERFORMANCE - DISTRICT HEATING",
    "   **   ~~~   ** ..Variable name=HUMIDIFIER:DISTRICTHEATING not valid for this simulation.",
    "   ** Warning ** Processing Monthly Tabular Reports: BUILDING ENERGY PERFORMANCE - DISTRICT HEATING",
    "   **   ~~~   ** ..Variable name=HEATRECOVERY:DISTRICTHEATING not valid for this simulation.",
    "   ** Warning ** Processing Monthly Tabular Reports: BUILDING ENERGY PERFORMANCE - DISTRICT HEATING",
    "   **   ~~~   ** ..Variable name=WATERSYSTEMS:DISTRICTHEATING not valid for this simulation.",
    "   ** Warning ** Processing Monthly Tabular Reports: BUILDING ENERGY PERFORMANCE - DISTRICT HEATING",
    "   **   ~~~   ** ..Variable name=COGENERATION:DISTRICTHEATING not valid for this simulation.",
    "   ** Warning ** Processing Monthly Tabular Reports: BUILDING ENERGY PERFORMANCE - DISTRICT HEATING",
    "   **   ~~~   ** ..Variable name=INTERIORLIGHTS:DISTRICTHEATING not valid for this simulation.",
    "   **   ~~~   ** ..i.e., Variable name=Meter:INTERIORLIGHTS:DISTRICTHEATING not valid for this simulation.",
    "   ** Warning ** Processing Monthly Tabular Reports: BUILDING ENERGY PERFORMANCE - DISTRICT HEATING",
    "   **   ~~~   ** ..Variable name=EXTERIORLIGHTS:DISTRICTHEATING not valid for this simulation.",
    "   **   ~~~   ** ..i.e., Variable name=Meter:EXTERIORLIGHTS:DISTRICTHEATING not valid for this simulation.",
    "   ** Warning ** Processing Monthly Tabular Reports: BUILDING ENERGY PERFORMANCE - DISTRICT HEATING",
    "   **   ~~~   ** ..Variable name=INTERIOREQUIPMENT:DISTRICTHEATING not valid for this simulation.",
    "   **   ~~~   ** ..i.e., Variable name=Meter:INTERIOREQUIPMENT:DISTRICTHEATING not valid for this simulation.",
    "   ** Warning ** Processing Monthly Tabular Reports: BUILDING ENERGY PERFORMANCE - DISTRICT HEATING",
    "   **   ~~~   ** ..Variable name=EXTERIOREQUIPMENT:DISTRICTHEATING not valid for this simulation.",
    "   **   ~~~   ** ..i.e., Variable name=Meter:EXTERIOREQUIPMENT:DISTRICTHEATING not valid for this simulation.",
    "   ** Warning ** Processing Monthly Tabular Reports: BUILDING ENERGY PERFORMANCE - DISTRICT HEATING",
    "   **   ~~~   ** ..Variable name=FANS:DISTRICTHEATING not valid for this simulation.",
    "   **   ~~~   ** ..i.e., Variable name=Meter:FANS:DISTRICTHEATING not valid for this simulation.",
    "   ** Warning ** Processing Monthly Tabular Reports: BUILDING ENERGY PERFORMANCE - DISTRICT HEATING",
    "   **   ~~~   ** ..Variable name=PUMPS:DISTRICTHEATING not valid for this simulation.",
    "   **   ~~~   ** ..i.e., Variable name=Meter:PUMPS:DISTRICTHEATING not valid for this simulation.",
    "   ** Warning ** Processing Monthly Tabular Reports: BUILDING ENERGY PERFORMANCE - DISTRICT HEATING",
    "   **   ~~~   ** ..Variable name=COOLING:DISTRICTHEATING not valid for this simulation.",
    "   **   ~~~   ** ..i.e., Variable name=Meter:COOLING:DISTRICTHEATING not valid for this simulation.",
    "   ** Warning ** Processing Monthly Tabular Reports: BUILDING ENERGY PERFORMANCE - DISTRICT HEATING",
    "   **   ~~~   ** ..Variable name=HEATREJECTION:DISTRICTHEATING not valid for this simulation.",
    "   **   ~~~   ** ..i.e., Variable name=Meter:HEATREJECTION:DISTRICTHEATING not valid for this simulation.",
    "   ** Warning ** Processing Monthly Tabular Reports: BUILDING ENERGY PERFORMANCE - DISTRICT HEATING",
    "   **   ~~~   ** ..Variable name=HUMIDIFIER:DISTRICTHEATING not valid for this simulation.",
    "   **   ~~~   ** ..i.e., Variable name=Meter:HUMIDIFIER:DISTRICTHEATING not valid for this simulation.",
    "   ** Warning ** Processing Monthly Tabular Reports: BUILDING ENERGY PERFORMANCE - DISTRICT HEATING",
    "   **   ~~~   ** ..Variable name=HEATRECOVERY:DISTRICTHEATING not valid for this simulation.",
    "   **   ~~~   ** ..i.e., Variable name=Meter:HEATRECOVERY:DISTRICTHEATING not valid for this simulation.",
    "   ** Warning ** Processing Monthly Tabular Reports: BUILDING ENERGY PERFORMANCE - DISTRICT HEATING",
    "   **   ~~~   ** ..Variable name=WATERSYSTEMS:DISTRICTHEATING not valid for this simulation.",
    "   **   ~~~   ** ..i.e., Variable name=Meter:WATERSYSTEMS:DISTRICTHEATING not valid for this simulation.",
    "   ** Warning ** Processing Monthly Tabular Reports: BUILDING ENERGY PERFORMANCE - DISTRICT HEATING",
    "   **   ~~~   ** ..Variable name=COGENERATION:DISTRICTHEATING not valid for this simulation.",
    "   **   ~~~   ** ..i.e., Variable name=Meter:COGENERATION:DISTRICTHEATING not valid for this simulation.",
    "   ** Warning ** Processing Monthly Tabular Reports: BUILDING ENERGY PERFORMANCE - DISTRICT COOLING",
    "   **   ~~~   ** ..Variable name=INTERIORLIGHTS:DISTRICTCOOLING not valid for this simulation.",
    "   ** Warning ** Processing Monthly Tabular Reports: BUILDING ENERGY PERFORMANCE - DISTRICT COOLING",
    "   **   ~~~   ** ..Variable name=EXTERIORLIGHTS:DISTRICTCOOLING not valid for this simulation.",
    "   ** Warning ** Processing Monthly Tabular Reports: BUILDING ENERGY PERFORMANCE - DISTRICT COOLING",
    "   **   ~~~   ** ..Variable name=INTERIOREQUIPMENT:DISTRICTCOOLING not valid for this simulation.",
    "   ** Warning ** Processing Monthly Tabular Reports: BUILDING ENERGY PERFORMANCE - DISTRICT COOLING",
    "   **   ~~~   ** ..Variable name=EXTERIOREQUIPMENT:DISTRICTCOOLING not valid for this simulation.",
    "   ** Warning ** Processing Monthly Tabular Reports: BUILDING ENERGY PERFORMANCE - DISTRICT COOLING",
    "   **   ~~~   ** ..Variable name=FANS:DISTRICTCOOLING not valid for this simulation.",
    "   ** Warning ** Processing Monthly Tabular Reports: BUILDING ENERGY PERFORMANCE - DISTRICT COOLING",
    "   **   ~~~   ** ..Variable name=PUMPS:DISTRICTCOOLING not valid for this simulation.",
    "   ** Warning ** Processing Monthly Tabular Reports: BUILDING ENERGY PERFORMANCE - DISTRICT COOLING",
    "   **   ~~~   ** ..Variable name=HEATING:DISTRICTCOOLING not valid for this simulation.",
    "   ** Warning ** Processing Monthly Tabular Reports: BUILDING ENERGY PERFORMANCE - DISTRICT COOLING",
    "   **   ~~~   ** ..Variable name=HEATREJECTION:DISTRICTCOOLING not valid for this simulation.",
    "   ** Warning ** Processing Monthly Tabular Reports: BUILDING ENERGY PERFORMANCE - DISTRICT COOLING",
    "   **   ~~~   ** ..Variable name=HUMIDIFIER:DISTRICTCOOLING not valid for this simulation.",
    "   ** Warning ** Processing Monthly Tabular Reports: BUILDING ENERGY PERFORMANCE - DISTRICT COOLING",
    "   **   ~~~   ** ..Variable name=HEATRECOVERY:DISTRICTCOOLING not valid for this simulation.",
    "   ** Warning ** Processing Monthly Tabular Reports: BUILDING ENERGY PERFORMANCE - DISTRICT COOLING",
    "   **   ~~~   ** ..Variable name=WATERSYSTEMS:DISTRICTCOOLING not valid for this simulation.",
    "   ** Warning ** Processing Monthly Tabular Reports: BUILDING ENERGY PERFORMANCE - DISTRICT COOLING",
    "   **   ~~~   ** ..Variable name=COGENERATION:DISTRICTCOOLING not valid for this simulation.",
    "   ** Warning ** Processing Monthly Tabular Reports: BUILDING ENERGY PERFORMANCE - DISTRICT COOLING",
    "   **   ~~~   ** ..Variable name=INTERIORLIGHTS:DISTRICTCOOLING not valid for this simulation.",
    "   **   ~~~   ** ..i.e., Variable name=Meter:INTERIORLIGHTS:DISTRICTCOOLING not valid for this simulation.",
    "   ** Warning ** Processing Monthly Tabular Reports: BUILDING ENERGY PERFORMANCE - DISTRICT COOLING",
    "   **   ~~~   ** ..Variable name=EXTERIORLIGHTS:DISTRICTCOOLING not valid for this simulation.",
    "   **   ~~~   ** ..i.e., Variable name=Meter:EXTERIORLIGHTS:DISTRICTCOOLING not valid for this simulation.",
    "   ** Warning ** Processing Monthly Tabular Reports: BUILDING ENERGY PERFORMANCE - DISTRICT COOLING",
    "   **   ~~~   ** ..Variable name=INTERIOREQUIPMENT:DISTRICTCOOLING not valid for this simulation.",
    "   **   ~~~   ** ..i.e., Variable name=Meter:INTERIOREQUIPMENT:DISTRICTCOOLING not valid for this simulation.",
    "   ** Warning ** Processing Monthly Tabular Reports: BUILDING ENERGY PERFORMANCE - DISTRICT COOLING",
    "   **   ~~~   ** ..Variable name=EXTERIOREQUIPMENT:DISTRICTCOOLING not valid for this simulation.",
    "   **   ~~~   ** ..i.e., Variable name=Meter:EXTERIOREQUIPMENT:DISTRICTCOOLING not valid for this simulation.",
    "   ** Warning ** Processing Monthly Tabular Reports: BUILDING ENERGY PERFORMANCE - DISTRICT COOLING",
    "   **   ~~~   ** ..Variable name=FANS:DISTRICTCOOLING not valid for this simulation.",
    "   **   ~~~   ** ..i.e., Variable name=Meter:FANS:DISTRICTCOOLING not valid for this simulation.",
    "   ** Warning ** Processing Monthly Tabular Reports: BUILDING ENERGY PERFORMANCE - DISTRICT COOLING",
    "   **   ~~~   ** ..Variable name=PUMPS:DISTRICTCOOLING not valid for this simulation.",
    "   **   ~~~   ** ..i.e., Variable name=Meter:PUMPS:DISTRICTCOOLING not valid for this simulation.",
    "   ** Warning ** Processing Monthly Tabular Reports: BUILDING ENERGY PERFORMANCE - DISTRICT COOLING",
    "   **   ~~~   ** ..Variable name=HEATING:DISTRICTCOOLING not valid for this simulation.",
    "   **   ~~~   ** ..i.e., Variable name=Meter:HEATING:DISTRICTCOOLING not valid for this simulation.",
    "   ** Warning ** Processing Monthly Tabular Reports: BUILDING ENERGY PERFORMANCE - DISTRICT COOLING",
    "   **   ~~~   ** ..Variable name=HEATREJECTION:DISTRICTCOOLING not valid for this simulation.",
    "   **   ~~~   ** ..i.e., Variable name=Meter:HEATREJECTION:DISTRICTCOOLING not valid for this simulation.",
    "   ** Warning ** Processing Monthly Tabular Reports: BUILDING ENERGY PERFORMANCE - DISTRICT COOLING",
    "   **   ~~~   ** ..Variable name=HUMIDIFIER:DISTRICTCOOLING not valid for this simulation.",
    "   **   ~~~   ** ..i.e., Variable name=Meter:HUMIDIFIER:DISTRICTCOOLING not valid for this simulation.",
    "   ** Warning ** Processing Monthly Tabular Reports: BUILDING ENERGY PERFORMANCE - DISTRICT COOLING",
    "   **   ~~~   ** ..Variable name=HEATRECOVERY:DISTRICTCOOLING not valid for this simulation.",
    "   **   ~~~   ** ..i.e., Variable name=Meter:HEATRECOVERY:DISTRICTCOOLING not valid for this simulation.",
    "   ** Warning ** Processing Monthly Tabular Reports: BUILDING ENERGY PERFORMANCE - DISTRICT COOLING",
    "   **   ~~~   ** ..Variable name=WATERSYSTEMS:DISTRICTCOOLING not valid for this simulation.",
    "   **   ~~~   ** ..i.e., Variable name=Meter:WATERSYSTEMS:DISTRICTCOOLING not valid for this simulation.",
    "   ** Warning ** Processing Monthly Tabular Reports: BUILDING ENERGY PERFORMANCE - DISTRICT COOLING",
    "   **   ~~~   ** ..Variable name=COGENERATION:DISTRICTCOOLING not valid for this simulation.",
    "   **   ~~~   ** ..i.e., Variable name=Meter:COGENERATION:DISTRICTCOOLING not valid for this simulation.",
    "   ** Warning ** Processing Monthly Tabular Reports: BUILDING ENERGY PERFORMANCE - ELECTRICITY PEAK DEMAND",
    "   **   ~~~   ** ..Variable name=EXTERIORLIGHTS:ELECTRICITY not valid for this simulation.",
    "   ** Warning ** Processing Monthly Tabular Reports: BUILDING ENERGY PERFORMANCE - ELECTRICITY PEAK DEMAND",
    "   **   ~~~   ** ..Variable name=EXTERIOREQUIPMENT:ELECTRICITY not valid for this simulation.",
    "   ** Warning ** Processing Monthly Tabular Reports: BUILDING ENERGY PERFORMANCE - ELECTRICITY PEAK DEMAND",
    "   **   ~~~   ** ..Variable name=PUMPS:ELECTRICITY not valid for this simulation.",
    "   ** Warning ** Processing Monthly Tabular Reports: BUILDING ENERGY PERFORMANCE - ELECTRICITY PEAK DEMAND",
    "   **   ~~~   ** ..Variable name=HEATING:ELECTRICITY not valid for this simulation.",
    "   ** Warning ** Processing Monthly Tabular Reports: BUILDING ENERGY PERFORMANCE - ELECTRICITY PEAK DEMAND",
    "   **   ~~~   ** ..Variable name=COOLING:ELECTRICITY not valid for this simulation.",
    "   ** Warning ** Processing Monthly Tabular Reports: BUILDING ENERGY PERFORMANCE - ELECTRICITY PEAK DEMAND",
    "   **   ~~~   ** ..Variable name=HEATREJECTION:ELECTRICITY not valid for this simulation.",
    "   ** Warning ** Processing Monthly Tabular Reports: BUILDING ENERGY PERFORMANCE - ELECTRICITY PEAK DEMAND",
    "   **   ~~~   ** ..Variable name=HUMIDIFIER:ELECTRICITY not valid for this simulation.",
    "   ** Warning ** Processing Monthly Tabular Reports: BUILDING ENERGY PERFORMANCE - ELECTRICITY PEAK DEMAND",
    "   **   ~~~   ** ..Variable name=HEATRECOVERY:ELECTRICITY not valid for this simulation.",
    "   ** Warning ** Processing Monthly Tabular Reports: BUILDING ENERGY PERFORMANCE - ELECTRICITY PEAK DEMAND",
    "   **   ~~~   ** ..Variable name=WATERSYSTEMS:ELECTRICITY not valid for this simulation.",
    "   ** Warning ** Processing Monthly Tabular Reports: BUILDING ENERGY PERFORMANCE - ELECTRICITY PEAK DEMAND",
    "   **   ~~~   ** ..Variable name=COGENERATION:ELECTRICITY not valid for this simulation.",
    "   ** Warning ** Processing Monthly Tabular Reports: BUILDING ENERGY PERFORMANCE - ELECTRICITY PEAK DEMAND",
    "   **   ~~~   ** ..Variable name=EXTERIORLIGHTS:ELECTRICITY not valid for this simulation.",
    "   **   ~~~   ** ..i.e., Variable name=Meter:EXTERIORLIGHTS:ELECTRICITY not valid for this simulation.",
    "   ** Warning ** Processing Monthly Tabular Reports: BUILDING ENERGY PERFORMANCE - ELECTRICITY PEAK DEMAND",
    "   **   ~~~   ** ..Variable name=EXTERIOREQUIPMENT:ELECTRICITY not valid for this simulation.",
    "   **   ~~~   ** ..i.e., Variable name=Meter:EXTERIOREQUIPMENT:ELECTRICITY not valid for this simulation.",
    "   ** Warning ** Processing Monthly Tabular Reports: BUILDING ENERGY PERFORMANCE - ELECTRICITY PEAK DEMAND",
    "   **   ~~~   ** ..Variable name=PUMPS:ELECTRICITY not valid for this simulation.",
    "   **   ~~~   ** ..i.e., Variable name=Meter:PUMPS:ELECTRICITY not valid for this simulation.",
    "   ** Warning ** Processing Monthly Tabular Reports: BUILDING ENERGY PERFORMANCE - ELECTRICITY PEAK DEMAND",
    "   **   ~~~   ** ..Variable name=HEATING:ELECTRICITY not valid for this simulation.",
    "   **   ~~~   ** ..i.e., Variable name=Meter:HEATING:ELECTRICITY not valid for this simulation.",
    "   ** Warning ** Processing Monthly Tabular Reports: BUILDING ENERGY PERFORMANCE - ELECTRICITY PEAK DEMAND",
    "   **   ~~~   ** ..Variable name=COOLING:ELECTRICITY not valid for this simulation.",
    "   **   ~~~   ** ..i.e., Variable name=Meter:COOLING:ELECTRICITY not valid for this simulation.",
    "   ** Warning ** Processing Monthly Tabular Reports: BUILDING ENERGY PERFORMANCE - ELECTRICITY PEAK DEMAND",
    "   **   ~~~   ** ..Variable name=HEATREJECTION:ELECTRICITY not valid for this simulation.",
    "   **   ~~~   ** ..i.e., Variable name=Meter:HEATREJECTION:ELECTRICITY not valid for this simulation.",
    "   ** Warning ** Processing Monthly Tabular Reports: BUILDING ENERGY PERFORMANCE - ELECTRICITY PEAK DEMAND",
    "   **   ~~~   ** ..Variable name=HUMIDIFIER:ELECTRICITY not valid for this simulation.",
    "   **   ~~~   ** ..i.e., Variable name=Meter:HUMIDIFIER:ELECTRICITY not valid for this simulation.",
    "   ** Warning ** Processing Monthly Tabular Reports: BUILDING ENERGY PERFORMANCE - ELECTRICITY PEAK DEMAND",
    "   **   ~~~   ** ..Variable name=HEATRECOVERY:ELECTRICITY not valid for this simulation.",
    "   **   ~~~   ** ..i.e., Variable name=Meter:HEATRECOVERY:ELECTRICITY not valid for this simulation.",
    "   ** Warning ** Processing Monthly Tabular Reports: BUILDING ENERGY PERFORMANCE - ELECTRICITY PEAK DEMAND",
    "   **   ~~~   ** ..Variable name=WATERSYSTEMS:ELECTRICITY not valid for this simulation.",
    "   **   ~~~   ** ..i.e., Variable name=Meter:WATERSYSTEMS:ELECTRICITY not valid for this simulation.",
    "   ** Warning ** Processing Monthly Tabular Reports: BUILDING ENERGY PERFORMANCE - ELECTRICITY PEAK DEMAND",
    "   **   ~~~   ** ..Variable name=COGENERATION:ELECTRICITY not valid for this simulation.",
    "   **   ~~~   ** ..i.e., Variable name=Meter:COGENERATION:ELECTRICITY not valid for this simulation.",
    "   ** Warning ** Processing Monthly Tabular Reports: BUILDING ENERGY PERFORMANCE - NATURAL GAS PEAK DEMAND",
    "   **   ~~~   ** ..Variable name=GAS:FACILITY not valid for this simulation.",
    "   ** Warning ** Processing Monthly Tabular Reports: BUILDING ENERGY PERFORMANCE - NATURAL GAS PEAK DEMAND",
    "   **   ~~~   ** ..Variable name=INTERIOREQUIPMENT:GAS not valid for this simulation.",
    "   ** Warning ** Processing Monthly Tabular Reports: BUILDING ENERGY PERFORMANCE - NATURAL GAS PEAK DEMAND",
    "   **   ~~~   ** ..Variable name=EXTERIOREQUIPMENT:GAS not valid for this simulation.",
    "   ** Warning ** Processing Monthly Tabular Reports: BUILDING ENERGY PERFORMANCE - NATURAL GAS PEAK DEMAND",
    "   **   ~~~   ** ..Variable name=HEATING:GAS not valid for this simulation.",
    "   ** Warning ** Processing Monthly Tabular Reports: BUILDING ENERGY PERFORMANCE - NATURAL GAS PEAK DEMAND",
    "   **   ~~~   ** ..Variable name=COOLING:GAS not valid for this simulation.",
    "   ** Warning ** Processing Monthly Tabular Reports: BUILDING ENERGY PERFORMANCE - NATURAL GAS PEAK DEMAND",
    "   **   ~~~   ** ..Variable name=WATERSYSTEMS:GAS not valid for this simulation.",
    "   ** Warning ** Processing Monthly Tabular Reports: BUILDING ENERGY PERFORMANCE - NATURAL GAS PEAK DEMAND",
    "   **   ~~~   ** ..Variable name=COGENERATION:GAS not valid for this simulation.",
    "   ** Warning ** Processing Monthly Tabular Reports: BUILDING ENERGY PERFORMANCE - DISTRICT HEATING PEAK DEMAND",
    "   **   ~~~   ** ..Variable name=INTERIORLIGHTS:DISTRICTHEATING not valid for this simulation.",
    "   ** Warning ** Processing Monthly Tabular Reports: BUILDING ENERGY PERFORMANCE - DISTRICT HEATING PEAK DEMAND",
    "   **   ~~~   ** ..Variable name=EXTERIORLIGHTS:DISTRICTHEATING not valid for this simulation.",
    "   ** Warning ** Processing Monthly Tabular Reports: BUILDING ENERGY PERFORMANCE - DISTRICT HEATING PEAK DEMAND",
    "   **   ~~~   ** ..Variable name=INTERIOREQUIPMENT:DISTRICTHEATING not valid for this simulation.",
    "   ** Warning ** Processing Monthly Tabular Reports: BUILDING ENERGY PERFORMANCE - DISTRICT HEATING PEAK DEMAND",
    "   **   ~~~   ** ..Variable name=EXTERIOREQUIPMENT:DISTRICTHEATING not valid for this simulation.",
    "   ** Warning ** Processing Monthly Tabular Reports: BUILDING ENERGY PERFORMANCE - DISTRICT HEATING PEAK DEMAND",
    "   **   ~~~   ** ..Variable name=FANS:DISTRICTHEATING not valid for this simulation.",
    "   ** Warning ** Processing Monthly Tabular Reports: BUILDING ENERGY PERFORMANCE - DISTRICT HEATING PEAK DEMAND",
    "   **   ~~~   ** ..Variable name=PUMPS:DISTRICTHEATING not valid for this simulation.",
    "   ** Warning ** Processing Monthly Tabular Reports: BUILDING ENERGY PERFORMANCE - DISTRICT HEATING PEAK DEMAND",
    "   **   ~~~   ** ..Variable name=COOLING:DISTRICTHEATING not valid for this simulation.",
    "   ** Warning ** Processing Monthly Tabular Reports: BUILDING ENERGY PERFORMANCE - DISTRICT HEATING PEAK DEMAND",
    "   **   ~~~   ** ..Variable name=HEATREJECTION:DISTRICTHEATING not valid for this simulation.",
    "   ** Warning ** Processing Monthly Tabular Reports: BUILDING ENERGY PERFORMANCE - DISTRICT HEATING PEAK DEMAND",
    "   **   ~~~   ** ..Variable name=HUMIDIFIER:DISTRICTHEATING not valid for this simulation.",
    "   ** Warning ** Processing Monthly Tabular Reports: BUILDING ENERGY PERFORMANCE - DISTRICT HEATING PEAK DEMAND",
    "   **   ~~~   ** ..Variable name=HEATRECOVERY:DISTRICTHEATING not valid for this simulation.",
    "   ** Warning ** Processing Monthly Tabular Reports: BUILDING ENERGY PERFORMANCE - DISTRICT HEATING PEAK DEMAND",
    "   **   ~~~   ** ..Variable name=WATERSYSTEMS:DISTRICTHEATING not valid for this simulation.",
    "   ** Warning ** Processing Monthly Tabular Reports: BUILDING ENERGY PERFORMANCE - DISTRICT HEATING PEAK DEMAND",
    "   **   ~~~   ** ..Variable name=COGENERATION:DISTRICTHEATING not valid for this simulation.",
    "   ** Warning ** Processing Monthly Tabular Reports: BUILDING ENERGY PERFORMANCE - DISTRICT HEATING PEAK DEMAND",
    "   **   ~~~   ** ..Variable name=INTERIORLIGHTS:DISTRICTHEATING not valid for this simulation.",
    "   **   ~~~   ** ..i.e., Variable name=Meter:INTERIORLIGHTS:DISTRICTHEATING not valid for this simulation.",
    "   ** Warning ** Processing Monthly Tabular Reports: BUILDING ENERGY PERFORMANCE - DISTRICT HEATING PEAK DEMAND",
    "   **   ~~~   ** ..Variable name=EXTERIORLIGHTS:DISTRICTHEATING not valid for this simulation.",
    "   **   ~~~   ** ..i.e., Variable name=Meter:EXTERIORLIGHTS:DISTRICTHEATING not valid for this simulation.",
    "   ** Warning ** Processing Monthly Tabular Reports: BUILDING ENERGY PERFORMANCE - DISTRICT HEATING PEAK DEMAND",
    "   **   ~~~   ** ..Variable name=INTERIOREQUIPMENT:DISTRICTHEATING not valid for this simulation.",
    "   **   ~~~   ** ..i.e., Variable name=Meter:INTERIOREQUIPMENT:DISTRICTHEATING not valid for this simulation.",
    "   ** Warning ** Processing Monthly Tabular Reports: BUILDING ENERGY PERFORMANCE - DISTRICT HEATING PEAK DEMAND",
    "   **   ~~~   ** ..Variable name=EXTERIOREQUIPMENT:DISTRICTHEATING not valid for this simulation.",
    "   **   ~~~   ** ..i.e., Variable name=Meter:EXTERIOREQUIPMENT:DISTRICTHEATING not valid for this simulation.",
    "   ** Warning ** Processing Monthly Tabular Reports: BUILDING ENERGY PERFORMANCE - DISTRICT HEATING PEAK DEMAND",
    "   **   ~~~   ** ..Variable name=FANS:DISTRICTHEATING not valid for this simulation.",
    "   **   ~~~   ** ..i.e., Variable name=Meter:FANS:DISTRICTHEATING not valid for this simulation.",
    "   ** Warning ** Processing Monthly Tabular Reports: BUILDING ENERGY PERFORMANCE - DISTRICT HEATING PEAK DEMAND",
    "   **   ~~~   ** ..Variable name=PUMPS:DISTRICTHEATING not valid for this simulation.",
    "   **   ~~~   ** ..i.e., Variable name=Meter:PUMPS:DISTRICTHEATING not valid for this simulation.",
    "   ** Warning ** Processing Monthly Tabular Reports: BUILDING ENERGY PERFORMANCE - DISTRICT HEATING PEAK DEMAND",
    "   **   ~~~   ** ..Variable name=COOLING:DISTRICTHEATING not valid for this simulation.",
    "   **   ~~~   ** ..i.e., Variable name=Meter:COOLING:DISTRICTHEATING not valid for this simulation.",
    "   ** Warning ** Processing Monthly Tabular Reports: BUILDING ENERGY PERFORMANCE - DISTRICT HEATING PEAK DEMAND",
    "   **   ~~~   ** ..Variable name=HEATREJECTION:DISTRICTHEATING not valid for this simulation.",
    "   **   ~~~   ** ..i.e., Variable name=Meter:HEATREJECTION:DISTRICTHEATING not valid for this simulation.",
    "   ** Warning ** Processing Monthly Tabular Reports: BUILDING ENERGY PERFORMANCE - DISTRICT HEATING PEAK DEMAND",
    "   **   ~~~   ** ..Variable name=HUMIDIFIER:DISTRICTHEATING not valid for this simulation.",
    "   **   ~~~   ** ..i.e., Variable name=Meter:HUMIDIFIER:DISTRICTHEATING not valid for this simulation.",
    "   ** Warning ** Processing Monthly Tabular Reports: BUILDING ENERGY PERFORMANCE - DISTRICT HEATING PEAK DEMAND",
    "   **   ~~~   ** ..Variable name=HEATRECOVERY:DISTRICTHEATING not valid for this simulation.",
    "   **   ~~~   ** ..i.e., Variable name=Meter:HEATRECOVERY:DISTRICTHEATING not valid for this simulation.",
    "   ** Warning ** Processing Monthly Tabular Reports: BUILDING ENERGY PERFORMANCE - DISTRICT HEATING PEAK DEMAND",
    "   **   ~~~   ** ..Variable name=WATERSYSTEMS:DISTRICTHEATING not valid for this simulation.",
    "   **   ~~~   ** ..i.e., Variable name=Meter:WATERSYSTEMS:DISTRICTHEATING not valid for this simulation.",
    "   ** Warning ** Processing Monthly Tabular Reports: BUILDING ENERGY PERFORMANCE - DISTRICT HEATING PEAK DEMAND",
    "   **   ~~~   ** ..Variable name=COGENERATION:DISTRICTHEATING not valid for this simulation.",
    "   **   ~~~   ** ..i.e., Variable name=Meter:COGENERATION:DISTRICTHEATING not valid for this simulation.",
    "   ** Warning ** Processing Monthly Tabular Reports: BUILDING ENERGY PERFORMANCE - DISTRICT COOLING PEAK DEMAND",
    "   **   ~~~   ** ..Variable name=INTERIORLIGHTS:DISTRICTCOOLING not valid for this simulation.",
    "   ** Warning ** Processing Monthly Tabular Reports: BUILDING ENERGY PERFORMANCE - DISTRICT COOLING PEAK DEMAND",
    "   **   ~~~   ** ..Variable name=EXTERIORLIGHTS:DISTRICTCOOLING not valid for this simulation.",
    "   ** Warning ** Processing Monthly Tabular Reports: BUILDING ENERGY PERFORMANCE - DISTRICT COOLING PEAK DEMAND",
    "   **   ~~~   ** ..Variable name=INTERIOREQUIPMENT:DISTRICTCOOLING not valid for this simulation.",
    "   ** Warning ** Processing Monthly Tabular Reports: BUILDING ENERGY PERFORMANCE - DISTRICT COOLING PEAK DEMAND",
    "   **   ~~~   ** ..Variable name=EXTERIOREQUIPMENT:DISTRICTCOOLING not valid for this simulation.",
    "   ** Warning ** Processing Monthly Tabular Reports: BUILDING ENERGY PERFORMANCE - DISTRICT COOLING PEAK DEMAND",
    "   **   ~~~   ** ..Variable name=FANS:DISTRICTCOOLING not valid for this simulation.",
    "   ** Warning ** Processing Monthly Tabular Reports: BUILDING ENERGY PERFORMANCE - DISTRICT COOLING PEAK DEMAND",
    "   **   ~~~   ** ..Variable name=PUMPS:DISTRICTCOOLING not valid for this simulation.",
    "   ** Warning ** Processing Monthly Tabular Reports: BUILDING ENERGY PERFORMANCE - DISTRICT COOLING PEAK DEMAND",
    "   **   ~~~   ** ..Variable name=HEATING:DISTRICTCOOLING not valid for this simulation.",
    "   ** Warning ** Processing Monthly Tabular Reports: BUILDING ENERGY PERFORMANCE - DISTRICT COOLING PEAK DEMAND",
    "   **   ~~~   ** ..Variable name=HEATREJECTION:DISTRICTCOOLING not valid for this simulation.",
    "   ** Warning ** Processing Monthly Tabular Reports: BUILDING ENERGY PERFORMANCE - DISTRICT COOLING PEAK DEMAND",
    "   **   ~~~   ** ..Variable name=HUMIDIFIER:DISTRICTCOOLING not valid for this simulation.",
    "   ** Warning ** Processing Monthly Tabular Reports: BUILDING ENERGY PERFORMANCE - DISTRICT COOLING PEAK DEMAND",
    "   **   ~~~   ** ..Variable name=HEATRECOVERY:DISTRICTCOOLING not valid for this simulation.",
    "   ** Warning ** Processing Monthly Tabular Reports: BUILDING ENERGY PERFORMANCE - DISTRICT COOLING PEAK DEMAND",
    "   **   ~~~   ** ..Variable name=WATERSYSTEMS:DISTRICTCOOLING not valid for this simulation.",
    "   ** Warning ** Processing Monthly Tabular Reports: BUILDING ENERGY PERFORMANCE - DISTRICT COOLING PEAK DEMAND",
    "   **   ~~~   ** ..Variable name=COGENERATION:DISTRICTCOOLING not valid for this simulation.",
    "   ** Warning ** Processing Monthly Tabular Reports: BUILDING ENERGY PERFORMANCE - DISTRICT COOLING PEAK DEMAND",
    "   **   ~~~   ** ..Variable name=INTERIORLIGHTS:DISTRICTCOOLING not valid for this simulation.",
    "   **   ~~~   ** ..i.e., Variable name=Meter:INTERIORLIGHTS:DISTRICTCOOLING not valid for this simulation.",
    "   ** Warning ** Processing Monthly Tabular Reports: BUILDING ENERGY PERFORMANCE - DISTRICT COOLING PEAK DEMAND",
    "   **   ~~~   ** ..Variable name=EXTERIORLIGHTS:DISTRICTCOOLING not valid for this simulation.",
    "   **   ~~~   ** ..i.e., Variable name=Meter:EXTERIORLIGHTS:DISTRICTCOOLING not valid for this simulation.",
    "   ** Warning ** Processing Monthly Tabular Reports: BUILDING ENERGY PERFORMANCE - DISTRICT COOLING PEAK DEMAND",
    "   **   ~~~   ** ..Variable name=INTERIOREQUIPMENT:DISTRICTCOOLING not valid for this simulation.",
    "   **   ~~~   ** ..i.e., Variable name=Meter:INTERIOREQUIPMENT:DISTRICTCOOLING not valid for this simulation.",
    "   ** Warning ** Processing Monthly Tabular Reports: BUILDING ENERGY PERFORMANCE - DISTRICT COOLING PEAK DEMAND",
    "   **   ~~~   ** ..Variable name=EXTERIOREQUIPMENT:DISTRICTCOOLING not valid for this simulation.",
    "   **   ~~~   ** ..i.e., Variable name=Meter:EXTERIOREQUIPMENT:DISTRICTCOOLING not valid for this simulation.",
    "   ** Warning ** Processing Monthly Tabular Reports: BUILDING ENERGY PERFORMANCE - DISTRICT COOLING PEAK DEMAND",
    "   **   ~~~   ** ..Variable name=FANS:DISTRICTCOOLING not valid for this simulation.",
    "   **   ~~~   ** ..i.e., Variable name=Meter:FANS:DISTRICTCOOLING not valid for this simulation.",
    "   ** Warning ** Processing Monthly Tabular Reports: BUILDING ENERGY PERFORMANCE - DISTRICT COOLING PEAK DEMAND",
    "   **   ~~~   ** ..Variable name=PUMPS:DISTRICTCOOLING not valid for this simulation.",
    "   **   ~~~   ** ..i.e., Variable name=Meter:PUMPS:DISTRICTCOOLING not valid for this simulation.",
    "   ** Warning ** Processing Monthly Tabular Reports: BUILDING ENERGY PERFORMANCE - DISTRICT COOLING PEAK DEMAND",
    "   **   ~~~   ** ..Variable name=HEATING:DISTRICTCOOLING not valid for this simulation.",
    "   **   ~~~   ** ..i.e., Variable name=Meter:HEATING:DISTRICTCOOLING not valid for this simulation.",
    "   ** Warning ** Processing Monthly Tabular Reports: BUILDING ENERGY PERFORMANCE - DISTRICT COOLING PEAK DEMAND",
    "   **   ~~~   ** ..Variable name=HEATREJECTION:DISTRICTCOOLING not valid for this simulation.",
    "   **   ~~~   ** ..i.e., Variable name=Meter:HEATREJECTION:DISTRICTCOOLING not valid for this simulation.",
    "   ** Warning ** Processing Monthly Tabular Reports: BUILDING ENERGY PERFORMANCE - DISTRICT COOLING PEAK DEMAND",
    "   **   ~~~   ** ..Variable name=HUMIDIFIER:DISTRICTCOOLING not valid for this simulation.",
    "   **   ~~~   ** ..i.e., Variable name=Meter:HUMIDIFIER:DISTRICTCOOLING not valid for this simulation.",
    "   ** Warning ** Processing Monthly Tabular Reports: BUILDING ENERGY PERFORMANCE - DISTRICT COOLING PEAK DEMAND",
    "   **   ~~~   ** ..Variable name=HEATRECOVERY:DISTRICTCOOLING not valid for this simulation.",
    "   **   ~~~   ** ..i.e., Variable name=Meter:HEATRECOVERY:DISTRICTCOOLING not valid for this simulation.",
    "   ** Warning ** Processing Monthly Tabular Reports: BUILDING ENERGY PERFORMANCE - DISTRICT COOLING PEAK DEMAND",
    "   **   ~~~   ** ..Variable name=WATERSYSTEMS:DISTRICTCOOLING not valid for this simulation.",
    "   **   ~~~   ** ..i.e., Variable name=Meter:WATERSYSTEMS:DISTRICTCOOLING not valid for this simulation.",
    "   ** Warning ** Processing Monthly Tabular Reports: BUILDING ENERGY PERFORMANCE - DISTRICT COOLING PEAK DEMAND",
    "   **   ~~~   ** ..Variable name=COGENERATION:DISTRICTCOOLING not valid for this simulation.",
    "   **   ~~~   ** ..i.e., Variable name=Meter:COGENERATION:DISTRICTCOOLING not valid for this simulation.",
    "   ** Warning ** The resource referenced by LifeCycleCost:UsePriceEscalation= \"U.S. AVG  COMMERCIAL-ELECTRICITY\" has no energy cost. ",
    "   **   ~~~   ** ... It is likely that the wrong resource is used. The resource should match the meter used in Utility:Tariff.",
    "   ** Warning ** The resource referenced by LifeCycleCost:UsePriceEscalation= \"U.S. AVG  COMMERCIAL-DISTILLATE OIL\" has no energy cost. ",
    "   **   ~~~   ** ... It is likely that the wrong resource is used. The resource should match the meter used in Utility:Tariff.",
    "   ** Warning ** The resource referenced by LifeCycleCost:UsePriceEscalation= \"U.S. AVG  COMMERCIAL-RESIDUAL OIL\" has no energy cost. ",
    "   **   ~~~   ** ... It is likely that the wrong resource is used. The resource should match the meter used in Utility:Tariff.",
    "   ** Warning ** The resource referenced by LifeCycleCost:UsePriceEscalation= \"U.S. AVG  COMMERCIAL-NATURAL GAS\" has no energy cost. ",
    "   **   ~~~   ** ... It is likely that the wrong resource is used. The resource should match the meter used in Utility:Tariff.",
    "   ** Warning ** The resource referenced by LifeCycleCost:UsePriceEscalation= \"U.S. AVG  COMMERCIAL-COAL\" has no energy cost. ",
    "   **   ~~~   ** ... It is likely that the wrong resource is used. The resource should match the meter used in Utility:Tariff.",
    "   ************* Simulation Error Summary *************",
    "   ************* There are 3 unused schedules in input.",
    "   ************* There are 3 unused week schedules in input.",
    "   ************* There are 7 unused day schedules in input.",
    "   ************* Use Output:Diagnostics,DisplayUnusedSchedules; to see them.",
    "   *************",
    "   ************* ===== Final Error Summary =====",
    "   ************* The following error categories occurred.  Consider correcting or noting.",
    "   ************* Nominally Unused Constructions",
    "   ************* ..The nominally unused constructions warning is provided to alert you to potential conditions that can cause",
    "   ************* ..extra time during simulation. Each construction is calculated by the algorithm indicated in the HeatBalanceAlgorithm",
    "   ************* ..object. You may remove the constructions indicated (when you use the DisplayExtraWarnings option).",
    "   *************",
    "   ************* EnergyPlus Warmup Error Summary. During Warmup: 0 Warning; 0 Severe Errors.",
    "   ************* EnergyPlus Sizing Error Summary. During Sizing: 9 Warning; 0 Severe Errors.",
    "   ************* EnergyPlus Completed Successfully-- 168 Warning; 0 Severe Errors; "
  ],
  "file_paths": [
    "/home/julien/Software/Others/OpenStudio-resources/testruns/output_objects.rb/generated_files",
    "./files",
    "./weather",
    "../../files",
    "../../weather",
    "./"
  ],
  "seed_file": "in.osm",
  "steps": [
    {
      "arguments": {
      },
      "measure_dir_name": "openstudio_results",
      "result": {
        "measure_class_name": "OpenStudioResults",
        "measure_display_name": "OpenStudio Results",
        "measure_name": "openstudio_results",
        "measure_taxonomy": "Reporting.QAQC",
        "measure_type": "ReportingMeasure",
        "measure_uid": "a25386cd-60e4-46bc-8b11-c755f379d916",
        "measure_version_id": "02ad7007-fe7b-4747-bd7a-29d697c4d91a",
        "measure_version_modified": "20180711T183039Z",
        "measure_xml_checksum": "557BF06F",
        "stderr": "",
        "stdout": "",
        "step_errors": [

        ],
        "step_final_condition": "Generated report with 18 sections to ./report.html.",
        "step_info": [

        ],
        "step_initial_condition": "Gathering data from EnergyPlus SQL file and OSM model.",
        "step_result": "Success",
        "step_values": [
          {
            "name": "building_summary_section",
            "value": true
          },
          {
            "name": "annual_overview_section",
            "value": true
          },
          {
            "name": "monthly_overview_section",
            "value": true
          },
          {
            "name": "utility_bills_rates_section",
            "value": true
          },
          {
            "name": "envelope_section_section",
            "value": true
          },
          {
            "name": "space_type_breakdown_section",
            "value": true
          },
          {
            "name": "space_type_details_section",
            "value": true
          },
          {
            "name": "interior_lighting_section",
            "value": true
          },
          {
            "name": "plug_loads_section",
            "value": true
          },
          {
            "name": "exterior_light_section",
            "value": true
          },
          {
            "name": "water_use_section",
            "value": true
          },
          {
            "name": "hvac_load_profile",
            "value": true
          },
          {
            "name": "zone_condition_section",
            "value": true
          },
          {
            "name": "zone_summary_section",
            "value": true
          },
          {
            "name": "zone_equipment_detail_section",
            "value": true
          },
          {
            "name": "air_loops_detail_section",
            "value": true
          },
          {
            "name": "plant_loops_detail_section",
            "value": true
          },
          {
            "name": "outdoor_air_section",
            "value": true
          },
          {
            "name": "cost_summary_section",
            "value": true
          },
          {
            "name": "source_energy_section",
            "value": true
          },
          {
            "name": "schedules_overview_section",
            "value": true
          },
          {
            "name": "standards_gem_version",
            "value": "0.2.11"
          },
          {
            "name": "workflow_gem_version",
            "value": "2.0.1"
          },
          {
            "display_name": "Building 1",
            "name": "building_name",
            "value": "n/a"
          },
          {
            "name": "total_site_energy",
            "units": "kBtu",
            "value": 1957005.4
          },
          {
            "name": "net_site_energy",
            "units": "kBtu",
            "value": 1957005.4
          },
          {
            "name": "total_building_area",
            "units": "ft^2",
            "value": 53819.55
          },
          {
            "name": "total_site_eui",
            "units": "kBtu/ft^2",
            "value": 36.36
          },
          {
            "name": "eui",
            "units": "kBtu/ft^2",
            "value": 36.36
          },
          {
            "name": "unmet_hours_during_heating",
            "units": "hr",
            "value": 0.0
          },
          {
            "name": "unmet_hours_during_cooling",
            "units": "hr",
            "value": 0.0
          },
          {
            "name": "unmet_hours_during_occupied_heating",
            "units": "hr",
            "value": 0.0
          },
          {
            "name": "unmet_hours_during_occupied_cooling",
            "units": "hr",
            "value": 0.0
          },
          {
            "name": "unmet_hours_tolerance_heating",
            "units": "F",
            "value": 0.36
          },
          {
            "name": "unmet_hours_tolerance_cooling",
            "units": "F",
            "value": 0.36
          },
          {
            "name": "ashrae_189_1_2009_ext_roof_iead_climate_zone_2_5",
            "units": "ft^2",
            "value": 53819.55
          },
          {
            "name": "ashrae_189_1_2009_ext_wall_steel_frame_climate_zone_4_8",
            "units": "ft^2",
            "value": 7750.02
          },
          {
            "name": "ashrae_189_1_2009_ext_window_climate_zone_4_5",
            "units": "ft^2",
            "value": 5166.68
          },
          {
            "name": "gross_window_wall_ratio",
            "units": "%",
            "value": 40.0
          },
          {
            "name": "gross_window_wall_ratio_conditioned",
            "units": "%",
            "value": 40.0
          },
          {
            "name": "skylight_roof_ratio",
            "units": "%",
            "value": 0.0
          },
          {
            "name": "space_type_baseline_model_space_type",
            "units": "ft^2",
            "value": 53819.55
          },
          {
            "name": "exterior_lighting_total_power",
            "units": "W",
            "value": 0.0
          },
          {
            "name": "exterior_lighting_total_consumption",
            "units": "kWh",
            "value": 573541.67
          },
          {
            "name": "inflation_approach",
            "value": "Constant Dollar"
          },
          {
            "name": "analysis_length",
            "units": "yrs",
            "value": 25
          },
          {
            "name": "annual_peak_electric_demand",
            "units": "kW",
            "value": 102.26
          },
          {
            "name": "first_year_capital_cost",
            "units": "$",
            "value": 0.0
          },
          {
            "name": "annual_utility_cost",
            "units": "$",
            "value": 0.0
          },
          {
            "name": "total_lifecycle_cost",
            "units": "$",
            "value": 0.0
          }
        ],
        "step_warnings": [
          "Annual Overview section failed and was skipped because: Optional not initialized. Detail on error follows.",
          "/home/julien/Software/Others/OpenStudio-resources/measures/openstudio_results/measure.rb:237:in `eval'\n/home/julien/Software/Others/OpenStudio-resources/measures/openstudio_results/resources/os_lib_reporting.rb:501:in `block in output_data_end_use_table'\n/home/julien/Software/Others/OpenStudio-resources/measures/openstudio_results/resources/os_lib_reporting.rb:491:in `each'\n/home/julien/Software/Others/OpenStudio-resources/measures/openstudio_results/resources/os_lib_reporting.rb:491:in `output_data_end_use_table'\n/home/julien/Software/Others/OpenStudio-resources/measures/openstudio_results/resources/os_lib_reporting.rb:258:in `annual_overview_section'\n(eval):1:in `block in run'\n/home/julien/Software/Others/OpenStudio-resources/measures/openstudio_results/measure.rb:237:in `eval'\n/home/julien/Software/Others/OpenStudio-resources/measures/openstudio_results/measure.rb:237:in `block in run'\n/home/julien/Software/Others/OpenStudio-resources/measures/openstudio_results/measure.rb:233:in `each'\n/home/julien/Software/Others/OpenStudio-resources/measures/openstudio_results/measure.rb:233:in `run'\n:/ruby/2.5.0/gems/openstudio-workflow-2.0.1/lib/openstudio/workflow/util/measure.rb:514:in `apply_measure'\n:/ruby/2.5.0/gems/openstudio-workflow-2.0.1/lib/openstudio/workflow/util/measure.rb:109:in `block in apply_measures'\n:/ruby/2.5.0/gems/openstudio-workflow-2.0.1/lib/openstudio/workflow/util/measure.rb:67:in `each_index'\n:/ruby/2.5.0/gems/openstudio-workflow-2.0.1/lib/openstudio/workflow/util/measure.rb:67:in `apply_measures'\n:/ruby/2.5.0/gems/openstudio-workflow-2.0.1/lib/openstudio/workflow/jobs/run_reporting_measures.rb:105:in `perform'\n:/ruby/2.5.0/gems/openstudio-workflow-2.0.1/lib/openstudio/workflow/run.rb:292:in `step'\n:/ruby/2.5.0/gems/openstudio-workflow-2.0.1/lib/openstudio/workflow/run.rb:234:in `run'\n:/openstudio_cli.rb:963:in `execute'\n:/openstudio_cli.rb:753:in `execute'\n:/openstudio_cli.rb:1747:in `<main>'\neval:175:in `eval'\neval:175:in `require_embedded_absolute'\neval:160:in `block in require_embedded'\neval:154:in `each'\neval:154:in `require_embedded'\neval:113:in `require'\neval:3:in `<main>'",
          "Monthly Overview section failed and was skipped because: Error creating prepared statement: SELECT Value FROM TabularDataWithStrings WHERE\n                                  WHERE ReportName=?\n                                  AND ReportForString='Meter'\n                                  AND RowName=?\n                                  AND ColumnName=?\n                                  AND Units='J' with error code 1, extended code 1, errmsg: near \"WHERE\": syntax error. Detail on error follows.",
          "/home/julien/Software/Others/OpenStudio-resources/measures/openstudio_results/measure.rb:237:in `eval'\n/home/julien/Software/Others/OpenStudio-resources/measures/openstudio_results/resources/os_lib_reporting.rb:2190:in `block (3 levels) in monthly_overview_section'\n/home/julien/Software/Others/OpenStudio-resources/measures/openstudio_results/resources/os_lib_reporting.rb:2188:in `each'\n/home/julien/Software/Others/OpenStudio-resources/measures/openstudio_results/resources/os_lib_reporting.rb:2188:in `block (2 levels) in monthly_overview_section'\n/home/julien/Software/Others/OpenStudio-resources/measures/openstudio_results/resources/os_lib_reporting.rb:2182:in `each'\n/home/julien/Software/Others/OpenStudio-resources/measures/openstudio_results/resources/os_lib_reporting.rb:2182:in `block in monthly_overview_section'\n/home/julien/Software/Others/OpenStudio-resources/measures/openstudio_results/resources/os_lib_reporting.rb:2153:in `each'\n/home/julien/Software/Others/OpenStudio-resources/measures/openstudio_results/resources/os_lib_reporting.rb:2153:in `monthly_overview_section'\n(eval):1:in `block in run'\n/home/julien/Software/Others/OpenStudio-resources/measures/openstudio_results/measure.rb:237:in `eval'\n/home/julien/Software/Others/OpenStudio-resources/measures/openstudio_results/measure.rb:237:in `block in run'\n/home/julien/Software/Others/OpenStudio-resources/measures/openstudio_results/measure.rb:233:in `each'\n/home/julien/Software/Others/OpenStudio-resources/measures/openstudio_results/measure.rb:233:in `run'\n:/ruby/2.5.0/gems/openstudio-workflow-2.0.1/lib/openstudio/workflow/util/measure.rb:514:in `apply_measure'\n:/ruby/2.5.0/gems/openstudio-workflow-2.0.1/lib/openstudio/workflow/util/measure.rb:109:in `block in apply_measures'\n:/ruby/2.5.0/gems/openstudio-workflow-2.0.1/lib/openstudio/workflow/util/measure.rb:67:in `each_index'\n:/ruby/2.5.0/gems/openstudio-workflow-2.0.1/lib/openstudio/workflow/util/measure.rb:67:in `apply_measures'\n:/ruby/2.5.0/gems/openstudio-workflow-2.0.1/lib/openstudio/workflow/jobs/run_reporting_measures.rb:105:in `perform'\n:/ruby/2.5.0/gems/openstudio-workflow-2.0.1/lib/openstudio/workflow/run.rb:292:in `step'\n:/ruby/2.5.0/gems/openstudio-workflow-2.0.1/lib/openstudio/workflow/run.rb:234:in `run'\n:/openstudio_cli.rb:963:in `execute'\n:/openstudio_cli.rb:753:in `execute'\n:/openstudio_cli.rb:1747:in `<main>'\neval:175:in `eval'\neval:175:in `require_embedded_absolute'\neval:160:in `block in require_embedded'\neval:154:in `each'\neval:154:in `require_embedded'\neval:113:in `require'\neval:3:in `<main>'",
          "HVAC Load Profiles section failed and was skipped because: Error creating prepared statement: SELECT Value FROM TabularDataWithStrings WHERE\n                                  WHERE ReportName=?\n                                  AND ReportForString='Meter'\n                                  AND RowName=?\n                                  AND ColumnName=?\n                                  AND Units='J' with error code 1, extended code 1, errmsg: near \"WHERE\": syntax error. Detail on error follows.",
          "/home/julien/Software/Others/OpenStudio-resources/measures/openstudio_results/measure.rb:237:in `eval'\n/home/julien/Software/Others/OpenStudio-resources/measures/openstudio_results/resources/os_lib_reporting.rb:3114:in `block (2 levels) in hvac_load_profile'\n/home/julien/Software/Others/OpenStudio-resources/measures/openstudio_results/resources/os_lib_reporting.rb:3110:in `each'\n/home/julien/Software/Others/OpenStudio-resources/measures/openstudio_results/resources/os_lib_reporting.rb:3110:in `block in hvac_load_profile'\n/home/julien/Software/Others/OpenStudio-resources/measures/openstudio_results/resources/os_lib_reporting.rb:3109:in `each'\n/home/julien/Software/Others/OpenStudio-resources/measures/openstudio_results/resources/os_lib_reporting.rb:3109:in `hvac_load_profile'\n(eval):1:in `block in run'\n/home/julien/Software/Others/OpenStudio-resources/measures/openstudio_results/measure.rb:237:in `eval'\n/home/julien/Software/Others/OpenStudio-resources/measures/openstudio_results/measure.rb:237:in `block in run'\n/home/julien/Software/Others/OpenStudio-resources/measures/openstudio_results/measure.rb:233:in `each'\n/home/julien/Software/Others/OpenStudio-resources/measures/openstudio_results/measure.rb:233:in `run'\n:/ruby/2.5.0/gems/openstudio-workflow-2.0.1/lib/openstudio/workflow/util/measure.rb:514:in `apply_measure'\n:/ruby/2.5.0/gems/openstudio-workflow-2.0.1/lib/openstudio/workflow/util/measure.rb:109:in `block in apply_measures'\n:/ruby/2.5.0/gems/openstudio-workflow-2.0.1/lib/openstudio/workflow/util/measure.rb:67:in `each_index'\n:/ruby/2.5.0/gems/openstudio-workflow-2.0.1/lib/openstudio/workflow/util/measure.rb:67:in `apply_measures'\n:/ruby/2.5.0/gems/openstudio-workflow-2.0.1/lib/openstudio/workflow/jobs/run_reporting_measures.rb:105:in `perform'\n:/ruby/2.5.0/gems/openstudio-workflow-2.0.1/lib/openstudio/workflow/run.rb:292:in `step'\n:/ruby/2.5.0/gems/openstudio-workflow-2.0.1/lib/openstudio/workflow/run.rb:234:in `run'\n:/openstudio_cli.rb:963:in `execute'\n:/openstudio_cli.rb:753:in `execute'\n:/openstudio_cli.rb:1747:in `<main>'\neval:175:in `eval'\neval:175:in `require_embedded_absolute'\neval:160:in `block in require_embedded'\neval:154:in `each'\neval:154:in `require_embedded'\neval:113:in `require'\neval:3:in `<main>'"
        ]
      }
    }
  ],
  "weather_file": "../../weatherdata/USA_IL_Chicago-OHare.Intl.AP.725300_TMY3.epw"
}