{
  "completed_status": "Fail",
  "current_step": 0,
  "eplusout_err": [
    "Program Version,EnergyPlus, Version 22.2.0-c249759bad, ",
    "   ************* Beginning Zone Sizing Calculations",
    "   ** Warning ** ProcessScheduleInput: Schedule:Day:Interval=\"SCHEDULE DAY 2\", Blank Schedule Type Limits Name input -- will not be validated.",
    "   ** Warning ** ProcessScheduleInput: Schedule:Day:Interval=\"SCHEDULE DAY 3\", Blank Schedule Type Limits Name input -- will not be validated.",
    "   ** Warning ** ProcessScheduleInput: Schedule:Day:Interval=\"SCHEDULE DAY 4\", Blank Schedule Type Limits Name input -- will not be validated.",
    "   ** Warning ** ProcessScheduleInput: Schedule:Day:Interval=\"SCHEDULE DAY 5\", Blank Schedule Type Limits Name input -- will not be validated.",
    "   ** Warning ** ProcessScheduleInput: Schedule:Day:Interval=\"SCHEDULE DAY 6\", Blank Schedule Type Limits Name input -- will not be validated.",
    "   ** Warning ** ProcessScheduleInput: Schedule:Day:Interval=\"SCHEDULE DAY 7\", Blank Schedule Type Limits Name input -- will not be validated.",
    "   ** Warning ** ProcessScheduleInput: Schedule:Constant=\"ALWAYS ON CONTINUOUS\", Blank Schedule Type Limits Name input -- will not be validated.",
    "   ** Warning ** GetHTSurfaceData: Surfaces with interface to Ground found but no \"Ground Temperatures\" were input.",
    "   **   ~~~   ** Found first in surface=SURFACE 25",
    "   **   ~~~   ** Defaults, constant throughout the year of (18.0) will be used.",
    "   ** Warning ** CheckUsedConstructions: There are 8 nominally unused constructions in input.",
    "   **   ~~~   ** For explicit details on each unused construction, use Output:Diagnostics,DisplayExtraWarnings;",
    "   ** Severe  ** GetInternalHeatGains: Lights=\"HEAT EXCHANGER AIR TO AIR SENSIBLE AND LATENT 1\", invalid Heat Exchanger Type = PLATE",
    "   **   ~~~   ** No matching Zone Exhaust Air Node found.",
    "   ** Severe  ** GetInternalHeatGains: Lights=\"HEAT EXCHANGER AIR TO AIR SENSIBLE AND LATENT 1\", invalid Supply Air Outlet Temperature Control =NO",
    "   **   ~~~   ** No matching Zone Return Air Node found.",
    "   ** Severe  ** GetInternalHeatGains: Lights=\"HEAT EXCHANGER AIR TO AIR SENSIBLE AND LATENT 1\", invalid Heat Exchanger Type = PLATE",
    "   **   ~~~   ** No matching Zone Exhaust Air Node found.",
    "   ** Severe  ** GetInternalHeatGains: Lights=\"HEAT EXCHANGER AIR TO AIR SENSIBLE AND LATENT 1\", invalid Supply Air Outlet Temperature Control =NO",
    "   **   ~~~   ** No matching Zone Return Air Node found.",
    "   ** Severe  ** GetInternalHeatGains: Lights=\"HEAT EXCHANGER AIR TO AIR SENSIBLE AND LATENT 1\", invalid Heat Exchanger Type = PLATE",
    "   **   ~~~   ** No matching Zone Exhaust Air Node found.",
    "   ** Severe  ** GetInternalHeatGains: Lights=\"HEAT EXCHANGER AIR TO AIR SENSIBLE AND LATENT 1\", invalid Supply Air Outlet Temperature Control =NO",
    "   **   ~~~   ** No matching Zone Return Air Node found.",
    "   ** Severe  ** GetInternalHeatGains: Lights=\"HEAT EXCHANGER AIR TO AIR SENSIBLE AND LATENT 1\", invalid Heat Exchanger Type = PLATE",
    "   **   ~~~   ** No matching Zone Exhaust Air Node found.",
    "   ** Severe  ** GetInternalHeatGains: Lights=\"HEAT EXCHANGER AIR TO AIR SENSIBLE AND LATENT 1\", invalid Supply Air Outlet Temperature Control =NO",
    "   **   ~~~   ** No matching Zone Return Air Node found.",
    "   ** Severe  ** GetInternalHeatGains: Lights=\"HEAT EXCHANGER AIR TO AIR SENSIBLE AND LATENT 1\", invalid Heat Exchanger Type = PLATE",
    "   **   ~~~   ** No matching Zone Exhaust Air Node found.",
    "   **  Fatal  ** GetInternalHeatGains: Errors found in Getting Internal Gains Input, Program Stopped",
    "   ...Summary of Errors that led to program termination:",
    "   ..... Reference severe error count=9",
    "   ..... Last severe error=GetInternalHeatGains: Lights=\"HEAT EXCHANGER AIR TO AIR SENSIBLE AND LATENT 1\", invalid Heat Exchanger Type = PLATE",
    "   ************* Warning:  Node connection errors not checked - most system input has not been read (see previous warning).",
    "   ************* Fatal error -- final processing.  Program exited before simulations began.  See previous error messages.",
    "   *************",
    "   ************* ===== Final Error Summary =====",
    "   ************* The following error categories occurred.  Consider correcting or noting.",
    "   ************* Nominally Unused Constructions",
    "   ************* ..The nominally unused constructions warning is provided to alert you to potential conditions that can cause",
    "   ************* ..extra time during simulation. Each construction is calculated by the algorithm indicated in the HeatBalanceAlgorithm",
    "   ************* ..object. You may remove the constructions indicated (when you use the DisplayExtraWarnings option).",
    "   *************",
    "   ************* EnergyPlus Warmup Error Summary. During Warmup: 0 Warning; 0 Severe Errors.",
    "   ************* EnergyPlus Sizing Error Summary. During Sizing: 9 Warning; 9 Severe Errors.",
    "   ************* EnergyPlus Terminated--Fatal Error Detected. 9 Warning; 9 Severe Errors; "
  ],
  "file_paths": [
    "/home/runner/work/OpenStudio-resources/OpenStudio-resources/testruns/ptac_othercoils.osm/generated_files",
    "./files",
    "./weather",
    "../../files",
    "../../weather",
    "./"
  ],
  "seed_file": "in.osm",
  "steps": [
    {
      "arguments": {
      },
      "measure_dir_name": "openstudio_results"
    }
  ],
  "weather_file": "../../weatherdata/USA_IL_Chicago-OHare.Intl.AP.725300_TMY3.epw"
}