{
  "completed_status": "Fail",
  "current_step": 0,
  "eplusout_err": [
    "Program Version,EnergyPlus, Version 24.2.0-e7ecb2d53b, ",
    "   ** Warning ** PluginManager: Search path inputs requested adding epin variable to Python path, but epin variable was empty, skipping.",
    "   ************* Successfully added path \"/home/runner/work/OpenStudio-resources/OpenStudio-resources/testruns/python_plugin.rb/files\" to the sys.path in Python",
    "   ** Severe  ** Failed to import module \"python_plugin_program\"",
    "   **   ~~~   ** Current sys.path=[\"/home/runner/work/OpenStudio-resources/OpenStudio-resources/testruns/python_plugin.rb/files\", \"./\", \".\", \"/usr/local/openstudio-3.9.0/EnergyPlus\", \"/usr/local/openstudio-3.9.0/EnergyPlus/python_lib/lib-dynload\", \"/usr/local/openstudio-3.9.0/EnergyPlus/python_lib\"]",
    "   **   ~~~   ** Python error description follows: ",
    "   **   ~~~   ** ModuleNotFoundError(\"No module named 'typing'\")",
    "   **   ~~~   ** Cannot find 'traceback' module in reportPythonError(), this is weird",
    "   **  Fatal  ** Python import error causes program termination",
    "   ...Summary of Errors that led to program termination:",
    "   ..... Reference severe error count=1",
    "   ..... Last severe error=Failed to import module \"python_plugin_program\"",
    "   ************* Warning:  Node connection errors not checked - most system input has not been read (see previous warning).",
    "   ************* Fatal error -- final processing.  Program exited before simulations began.  See previous error messages.",
    "   ************* EnergyPlus Warmup Error Summary. During Warmup: 0 Warning; 0 Severe Errors.",
    "   ************* EnergyPlus Sizing Error Summary. During Sizing: 0 Warning; 0 Severe Errors.",
    "   ************* EnergyPlus Terminated--Fatal Error Detected. 0 Warning; 1 Severe Errors; "
  ],
  "file_paths": [
    "/home/runner/work/OpenStudio-resources/OpenStudio-resources/testruns/python_plugin.rb/generated_files",
    "./files",
    "./weather",
    "../../files",
    "../../weather",
    "./"
  ],
  "run_options": null,
  "seed_file": "in.osm",
  "steps": [
    {
      "arguments": {
      },
      "measure_dir_name": "openstudio_results"
    }
  ],
  "weather_file": "../../weatherdata/USA_IL_Chicago-OHare.Intl.AP.725300_TMY3.epw"
}