{
  "completed_status": "Fail",
  "current_step": 0,
  "eplusout_err": [
    "Program Version,EnergyPlus, Version 8.8.0-7c3bbe4830, IDD_Version 8.8.0",
    "   ************* Beginning Zone Sizing Calculations",
    "   ** Warning ** ProcessScheduleInput: Schedule:Day:Interval=\"SCHEDULE DAY 2\", Blank Schedule Type Limits Name input -- will not be validated.",
    "   ** Warning ** ProcessScheduleInput: Schedule:Day:Interval=\"SCHEDULE DAY 3\", Blank Schedule Type Limits Name input -- will not be validated.",
    "   ** Warning ** ProcessScheduleInput: Schedule:Day:Interval=\"SCHEDULE DAY 4\", Blank Schedule Type Limits Name input -- will not be validated.",
    "   ** Warning ** ProcessScheduleInput: Schedule:Day:Interval=\"SCHEDULE DAY 5\", Blank Schedule Type Limits Name input -- will not be validated.",
    "   ** Warning ** ProcessScheduleInput: Schedule:Compact=\"REFRIGERATION CASE 3 DEFROST SCHEDULE\", Blank Schedule Type Limits Name input -- will not be validated.",
    "   ** Warning ** ProcessScheduleInput: DecodeHHMMField, Invalid \"until\" field value is not a multiple of the minutes for each timestep: UNTIL: 01:40",
    "   **   ~~~   ** Other errors may result. Occurred in Day Schedule=REFRIGERATION CASE 3 DEFROST SCHEDULE_dy_1",
    "   ** Warning ** ProcessScheduleInput: DecodeHHMMField, Invalid \"until\" field value is not a multiple of the minutes for each timestep: UNTIL: 04:16",
    "   **   ~~~   ** Other errors may result. Occurred in Day Schedule=REFRIGERATION CASE 3 DEFROST SCHEDULE_dy_1",
    "   ** Warning ** ProcessScheduleInput: DecodeHHMMField, Invalid \"until\" field value is not a multiple of the minutes for each timestep: UNTIL: 04:41",
    "   **   ~~~   ** Other errors may result. Occurred in Day Schedule=REFRIGERATION CASE 3 DEFROST SCHEDULE_dy_1",
    "   ** Warning ** ProcessScheduleInput: DecodeHHMMField, Invalid \"until\" field value is not a multiple of the minutes for each timestep: UNTIL: 07:17",
    "   **   ~~~   ** Other errors may result. Occurred in Day Schedule=REFRIGERATION CASE 3 DEFROST SCHEDULE_dy_1",
    "   ** Warning ** ProcessScheduleInput: DecodeHHMMField, Invalid \"until\" field value is not a multiple of the minutes for each timestep: UNTIL: 07:42",
    "   **   ~~~   ** Other errors may result. Occurred in Day Schedule=REFRIGERATION CASE 3 DEFROST SCHEDULE_dy_1",
    "   ** Warning ** ProcessScheduleInput: DecodeHHMMField, Invalid \"until\" field value is not a multiple of the minutes for each timestep: UNTIL: 10:18",
    "   **   ~~~   ** Other errors may result. Occurred in Day Schedule=REFRIGERATION CASE 3 DEFROST SCHEDULE_dy_1",
    "   ** Warning ** ProcessScheduleInput: DecodeHHMMField, Invalid \"until\" field value is not a multiple of the minutes for each timestep: UNTIL: 10:43",
    "   **   ~~~   ** Other errors may result. Occurred in Day Schedule=REFRIGERATION CASE 3 DEFROST SCHEDULE_dy_1",
    "   ** Warning ** ProcessScheduleInput: DecodeHHMMField, Invalid \"until\" field value is not a multiple of the minutes for each timestep: UNTIL: 14:19",
    "   **   ~~~   ** Other errors may result. Occurred in Day Schedule=REFRIGERATION CASE 3 DEFROST SCHEDULE_dy_1",
    "   ** Warning ** ProcessScheduleInput: DecodeHHMMField, Invalid \"until\" field value is not a multiple of the minutes for each timestep: UNTIL: 14:44",
    "   **   ~~~   ** Other errors may result. Occurred in Day Schedule=REFRIGERATION CASE 3 DEFROST SCHEDULE_dy_1",
    "   ** Warning ** ProcessScheduleInput: DecodeHHMMField, Invalid \"until\" field value is not a multiple of the minutes for each timestep: UNTIL: 17:20",
    "   **   ~~~   ** Other errors may result. Occurred in Day Schedule=REFRIGERATION CASE 3 DEFROST SCHEDULE_dy_1",
    "   ** Warning ** ProcessScheduleInput: DecodeHHMMField, Invalid \"until\" field value is not a multiple of the minutes for each timestep: UNTIL: 20:21",
    "   **   ~~~   ** Other errors may result. Occurred in Day Schedule=REFRIGERATION CASE 3 DEFROST SCHEDULE_dy_1",
    "   ** Warning ** ProcessScheduleInput: DecodeHHMMField, Invalid \"until\" field value is not a multiple of the minutes for each timestep: UNTIL: 20:46",
    "   **   ~~~   ** Other errors may result. Occurred in Day Schedule=REFRIGERATION CASE 3 DEFROST SCHEDULE_dy_1",
    "   ** Warning ** ProcessScheduleInput: DecodeHHMMField, Invalid \"until\" field value is not a multiple of the minutes for each timestep: UNTIL: 23:22",
    "   **   ~~~   ** Other errors may result. Occurred in Day Schedule=REFRIGERATION CASE 3 DEFROST SCHEDULE_dy_1",
    "   ** Warning ** ProcessScheduleInput: DecodeHHMMField, Invalid \"until\" field value is not a multiple of the minutes for each timestep: UNTIL: 23:47",
    "   **   ~~~   ** Other errors may result. Occurred in Day Schedule=REFRIGERATION CASE 3 DEFROST SCHEDULE_dy_1",
    "   ** Warning ** ProcessScheduleInput: Schedule:Compact=\"REFRIGERATION CASE 3 DEFROST DRIP DOWN SCHEDULE\", Blank Schedule Type Limits Name input -- will not be validated.",
    "   ** Warning ** ProcessScheduleInput: DecodeHHMMField, Invalid \"until\" field value is not a multiple of the minutes for each timestep: UNTIL: 04:16",
    "   **   ~~~   ** Other errors may result. Occurred in Day Schedule=REFRIGERATION CASE 3 DEFROST DRIP DOWN SCHEDULE_dy_1",
    "   ** Warning ** ProcessScheduleInput: DecodeHHMMField, Invalid \"until\" field value is not a multiple of the minutes for each timestep: UNTIL: 04:46",
    "   **   ~~~   ** Other errors may result. Occurred in Day Schedule=REFRIGERATION CASE 3 DEFROST DRIP DOWN SCHEDULE_dy_1",
    "   ** Warning ** ProcessScheduleInput: DecodeHHMMField, Invalid \"until\" field value is not a multiple of the minutes for each timestep: UNTIL: 07:17",
    "   **   ~~~   ** Other errors may result. Occurred in Day Schedule=REFRIGERATION CASE 3 DEFROST DRIP DOWN SCHEDULE_dy_1",
    "   ** Warning ** ProcessScheduleInput: DecodeHHMMField, Invalid \"until\" field value is not a multiple of the minutes for each timestep: UNTIL: 07:47",
    "   **   ~~~   ** Other errors may result. Occurred in Day Schedule=REFRIGERATION CASE 3 DEFROST DRIP DOWN SCHEDULE_dy_1",
    "   ** Warning ** ProcessScheduleInput: DecodeHHMMField, Invalid \"until\" field value is not a multiple of the minutes for each timestep: UNTIL: 10:18",
    "   **   ~~~   ** Other errors may result. Occurred in Day Schedule=REFRIGERATION CASE 3 DEFROST DRIP DOWN SCHEDULE_dy_1",
    "   ** Warning ** ProcessScheduleInput: DecodeHHMMField, Invalid \"until\" field value is not a multiple of the minutes for each timestep: UNTIL: 10:48",
    "   **   ~~~   ** Other errors may result. Occurred in Day Schedule=REFRIGERATION CASE 3 DEFROST DRIP DOWN SCHEDULE_dy_1",
    "   ** Warning ** ProcessScheduleInput: DecodeHHMMField, Invalid \"until\" field value is not a multiple of the minutes for each timestep: UNTIL: 14:19",
    "   **   ~~~   ** Other errors may result. Occurred in Day Schedule=REFRIGERATION CASE 3 DEFROST DRIP DOWN SCHEDULE_dy_1",
    "   ** Warning ** ProcessScheduleInput: DecodeHHMMField, Invalid \"until\" field value is not a multiple of the minutes for each timestep: UNTIL: 14:49",
    "   **   ~~~   ** Other errors may result. Occurred in Day Schedule=REFRIGERATION CASE 3 DEFROST DRIP DOWN SCHEDULE_dy_1",
    "   ** Warning ** ProcessScheduleInput: DecodeHHMMField, Invalid \"until\" field value is not a multiple of the minutes for each timestep: UNTIL: 17:20",
    "   **   ~~~   ** Other errors may result. Occurred in Day Schedule=REFRIGERATION CASE 3 DEFROST DRIP DOWN SCHEDULE_dy_1",
    "   ** Warning ** ProcessScheduleInput: DecodeHHMMField, Invalid \"until\" field value is not a multiple of the minutes for each timestep: UNTIL: 17:50",
    "   **   ~~~   ** Other errors may result. Occurred in Day Schedule=REFRIGERATION CASE 3 DEFROST DRIP DOWN SCHEDULE_dy_1",
    "   ** Warning ** ProcessScheduleInput: DecodeHHMMField, Invalid \"until\" field value is not a multiple of the minutes for each timestep: UNTIL: 20:21",
    "   **   ~~~   ** Other errors may result. Occurred in Day Schedule=REFRIGERATION CASE 3 DEFROST DRIP DOWN SCHEDULE_dy_1",
    "   ** Warning ** ProcessScheduleInput: DecodeHHMMField, Invalid \"until\" field value is not a multiple of the minutes for each timestep: UNTIL: 20:51",
    "   **   ~~~   ** Other errors may result. Occurred in Day Schedule=REFRIGERATION CASE 3 DEFROST DRIP DOWN SCHEDULE_dy_1",
    "   ** Warning ** ProcessScheduleInput: DecodeHHMMField, Invalid \"until\" field value is not a multiple of the minutes for each timestep: UNTIL: 23:22",
    "   **   ~~~   ** Other errors may result. Occurred in Day Schedule=REFRIGERATION CASE 3 DEFROST DRIP DOWN SCHEDULE_dy_1",
    "   ** Warning ** ProcessScheduleInput: DecodeHHMMField, Invalid \"until\" field value is not a multiple of the minutes for each timestep: UNTIL: 23:52",
    "   **   ~~~   ** Other errors may result. Occurred in Day Schedule=REFRIGERATION CASE 3 DEFROST DRIP DOWN SCHEDULE_dy_1",
    "   ** Warning ** ProcessScheduleInput: Schedule:Compact=\"REFRIGERATION WALK IN 3 DEFROST SCHEDULE\", Blank Schedule Type Limits Name input -- will not be validated.",
    "   ** Warning ** ProcessScheduleInput: DecodeHHMMField, Invalid \"until\" field value is not a multiple of the minutes for each timestep: UNTIL: 01:40",
    "   **   ~~~   ** Other errors may result. Occurred in Day Schedule=REFRIGERATION WALK IN 3 DEFROST SCHEDULE_dy_1",
    "   ** Warning ** ProcessScheduleInput: DecodeHHMMField, Invalid \"until\" field value is not a multiple of the minutes for each timestep: UNTIL: 04:16",
    "   **   ~~~   ** Other errors may result. Occurred in Day Schedule=REFRIGERATION WALK IN 3 DEFROST SCHEDULE_dy_1",
    "   ** Warning ** ProcessScheduleInput: DecodeHHMMField, Invalid \"until\" field value is not a multiple of the minutes for each timestep: UNTIL: 04:41",
    "   **   ~~~   ** Other errors may result. Occurred in Day Schedule=REFRIGERATION WALK IN 3 DEFROST SCHEDULE_dy_1",
    "   ** Warning ** ProcessScheduleInput: DecodeHHMMField, Invalid \"until\" field value is not a multiple of the minutes for each timestep: UNTIL: 07:17",
    "   **   ~~~   ** Other errors may result. Occurred in Day Schedule=REFRIGERATION WALK IN 3 DEFROST SCHEDULE_dy_1",
    "   ** Warning ** ProcessScheduleInput: DecodeHHMMField, Invalid \"until\" field value is not a multiple of the minutes for each timestep: UNTIL: 07:42",
    "   **   ~~~   ** Other errors may result. Occurred in Day Schedule=REFRIGERATION WALK IN 3 DEFROST SCHEDULE_dy_1",
    "   ** Warning ** ProcessScheduleInput: DecodeHHMMField, Invalid \"until\" field value is not a multiple of the minutes for each timestep: UNTIL: 10:18",
    "   **   ~~~   ** Other errors may result. Occurred in Day Schedule=REFRIGERATION WALK IN 3 DEFROST SCHEDULE_dy_1",
    "   ** Warning ** ProcessScheduleInput: DecodeHHMMField, Invalid \"until\" field value is not a multiple of the minutes for each timestep: UNTIL: 10:43",
    "   **   ~~~   ** Other errors may result. Occurred in Day Schedule=REFRIGERATION WALK IN 3 DEFROST SCHEDULE_dy_1",
    "   ** Warning ** ProcessScheduleInput: DecodeHHMMField, Invalid \"until\" field value is not a multiple of the minutes for each timestep: UNTIL: 14:19",
    "   **   ~~~   ** Other errors may result. Occurred in Day Schedule=REFRIGERATION WALK IN 3 DEFROST SCHEDULE_dy_1",
    "   ** Warning ** ProcessScheduleInput: DecodeHHMMField, Invalid \"until\" field value is not a multiple of the minutes for each timestep: UNTIL: 14:44",
    "   **   ~~~   ** Other errors may result. Occurred in Day Schedule=REFRIGERATION WALK IN 3 DEFROST SCHEDULE_dy_1",
    "   ** Warning ** ProcessScheduleInput: DecodeHHMMField, Invalid \"until\" field value is not a multiple of the minutes for each timestep: UNTIL: 17:20",
    "   **   ~~~   ** Other errors may result. Occurred in Day Schedule=REFRIGERATION WALK IN 3 DEFROST SCHEDULE_dy_1",
    "   ** Warning ** ProcessScheduleInput: DecodeHHMMField, Invalid \"until\" field value is not a multiple of the minutes for each timestep: UNTIL: 20:21",
    "   **   ~~~   ** Other errors may result. Occurred in Day Schedule=REFRIGERATION WALK IN 3 DEFROST SCHEDULE_dy_1",
    "   ** Warning ** ProcessScheduleInput: DecodeHHMMField, Invalid \"until\" field value is not a multiple of the minutes for each timestep: UNTIL: 20:46",
    "   **   ~~~   ** Other errors may result. Occurred in Day Schedule=REFRIGERATION WALK IN 3 DEFROST SCHEDULE_dy_1",
    "   ** Warning ** ProcessScheduleInput: DecodeHHMMField, Invalid \"until\" field value is not a multiple of the minutes for each timestep: UNTIL: 23:22",
    "   **   ~~~   ** Other errors may result. Occurred in Day Schedule=REFRIGERATION WALK IN 3 DEFROST SCHEDULE_dy_1",
    "   ** Warning ** ProcessScheduleInput: DecodeHHMMField, Invalid \"until\" field value is not a multiple of the minutes for each timestep: UNTIL: 23:47",
    "   **   ~~~   ** Other errors may result. Occurred in Day Schedule=REFRIGERATION WALK IN 3 DEFROST SCHEDULE_dy_1",
    "   ** Warning ** ProcessScheduleInput: Schedule:Compact=\"REFRIGERATION WALK IN 3 DEFROST DRIP DOWN SCHEDULE\", Blank Schedule Type Limits Name input -- will not be validated.",
    "   ** Warning ** ProcessScheduleInput: DecodeHHMMField, Invalid \"until\" field value is not a multiple of the minutes for each timestep: UNTIL: 04:16",
    "   **   ~~~   ** Other errors may result. Occurred in Day Schedule=REFRIGERATION WALK IN 3 DEFROST DRIP DOWN SCHEDULE_dy_1",
    "   ** Warning ** ProcessScheduleInput: DecodeHHMMField, Invalid \"until\" field value is not a multiple of the minutes for each timestep: UNTIL: 04:46",
    "   **   ~~~   ** Other errors may result. Occurred in Day Schedule=REFRIGERATION WALK IN 3 DEFROST DRIP DOWN SCHEDULE_dy_1",
    "   ** Warning ** ProcessScheduleInput: DecodeHHMMField, Invalid \"until\" field value is not a multiple of the minutes for each timestep: UNTIL: 07:17",
    "   **   ~~~   ** Other errors may result. Occurred in Day Schedule=REFRIGERATION WALK IN 3 DEFROST DRIP DOWN SCHEDULE_dy_1",
    "   ** Warning ** ProcessScheduleInput: DecodeHHMMField, Invalid \"until\" field value is not a multiple of the minutes for each timestep: UNTIL: 07:47",
    "   **   ~~~   ** Other errors may result. Occurred in Day Schedule=REFRIGERATION WALK IN 3 DEFROST DRIP DOWN SCHEDULE_dy_1",
    "   ** Warning ** ProcessScheduleInput: DecodeHHMMField, Invalid \"until\" field value is not a multiple of the minutes for each timestep: UNTIL: 10:18",
    "   **   ~~~   ** Other errors may result. Occurred in Day Schedule=REFRIGERATION WALK IN 3 DEFROST DRIP DOWN SCHEDULE_dy_1",
    "   ** Warning ** ProcessScheduleInput: DecodeHHMMField, Invalid \"until\" field value is not a multiple of the minutes for each timestep: UNTIL: 10:48",
    "   **   ~~~   ** Other errors may result. Occurred in Day Schedule=REFRIGERATION WALK IN 3 DEFROST DRIP DOWN SCHEDULE_dy_1",
    "   ** Warning ** ProcessScheduleInput: DecodeHHMMField, Invalid \"until\" field value is not a multiple of the minutes for each timestep: UNTIL: 14:19",
    "   **   ~~~   ** Other errors may result. Occurred in Day Schedule=REFRIGERATION WALK IN 3 DEFROST DRIP DOWN SCHEDULE_dy_1",
    "   ** Warning ** ProcessScheduleInput: DecodeHHMMField, Invalid \"until\" field value is not a multiple of the minutes for each timestep: UNTIL: 14:49",
    "   **   ~~~   ** Other errors may result. Occurred in Day Schedule=REFRIGERATION WALK IN 3 DEFROST DRIP DOWN SCHEDULE_dy_1",
    "   ** Warning ** ProcessScheduleInput: DecodeHHMMField, Invalid \"until\" field value is not a multiple of the minutes for each timestep: UNTIL: 17:20",
    "   **   ~~~   ** Other errors may result. Occurred in Day Schedule=REFRIGERATION WALK IN 3 DEFROST DRIP DOWN SCHEDULE_dy_1",
    "   ** Warning ** ProcessScheduleInput: DecodeHHMMField, Invalid \"until\" field value is not a multiple of the minutes for each timestep: UNTIL: 17:50",
    "   **   ~~~   ** Other errors may result. Occurred in Day Schedule=REFRIGERATION WALK IN 3 DEFROST DRIP DOWN SCHEDULE_dy_1",
    "   ** Warning ** ProcessScheduleInput: DecodeHHMMField, Invalid \"until\" field value is not a multiple of the minutes for each timestep: UNTIL: 20:21",
    "   **   ~~~   ** Other errors may result. Occurred in Day Schedule=REFRIGERATION WALK IN 3 DEFROST DRIP DOWN SCHEDULE_dy_1",
    "   ** Warning ** ProcessScheduleInput: DecodeHHMMField, Invalid \"until\" field value is not a multiple of the minutes for each timestep: UNTIL: 20:51",
    "   **   ~~~   ** Other errors may result. Occurred in Day Schedule=REFRIGERATION WALK IN 3 DEFROST DRIP DOWN SCHEDULE_dy_1",
    "   ** Warning ** ProcessScheduleInput: DecodeHHMMField, Invalid \"until\" field value is not a multiple of the minutes for each timestep: UNTIL: 23:22",
    "   **   ~~~   ** Other errors may result. Occurred in Day Schedule=REFRIGERATION WALK IN 3 DEFROST DRIP DOWN SCHEDULE_dy_1",
    "   ** Warning ** ProcessScheduleInput: DecodeHHMMField, Invalid \"until\" field value is not a multiple of the minutes for each timestep: UNTIL: 23:52",
    "   **   ~~~   ** Other errors may result. Occurred in Day Schedule=REFRIGERATION WALK IN 3 DEFROST DRIP DOWN SCHEDULE_dy_1",
    "   ** Warning ** ProcessScheduleInput: Schedule:Constant=\"ALWAYS OFF DISCRETE\", Blank Schedule Type Limits Name input -- will not be validated.",
    "   ** War"
  ],
  "seed_file": "in.osm",
  "steps": [
    {
      "arguments": {
      },
      "measure_dir_name": "openstudio_results"
    }
  ],
  "weather_file": "../../weatherdata/USA_IL_Chicago-OHare.Intl.AP.725300_TMY3.epw"
}