{
   "completed_at" : "20180205T201424Z",
   "completed_status" : "Fail",
   "current_step" : 0,
   "eplusout_err" : "Program Version,EnergyPlus, Version 8.8.0-d5f2442b35, YMD=2018.02.05 20:14,IDD_Version 8.8.0\n   ************* Beginning Zone Sizing Calculations\n   ** Warning ** ProcessScheduleInput: Schedule:Day:Interval=\"SCHEDULE DAY 2\", Blank Schedule Type Limits Name input -- will not be validated.\n   ** Warning ** ProcessScheduleInput: Schedule:Day:Interval=\"SCHEDULE DAY 3\", Blank Schedule Type Limits Name input -- will not be validated.\n   ** Warning ** ProcessScheduleInput: Schedule:Day:Interval=\"SCHEDULE DAY 4\", Blank Schedule Type Limits Name input -- will not be validated.\n   ** Warning ** ProcessScheduleInput: Schedule:Day:Interval=\"SCHEDULE DAY 5\", Blank Schedule Type Limits Name input -- will not be validated.\n   ** Warning ** ProcessScheduleInput: Schedule:Compact=\"REFRIGERATION CASE 3 DEFROST SCHEDULE\", Blank Schedule Type Limits Name input -- will not be validated.\n   ** Warning ** ProcessScheduleInput: DecodeHHMMField, Invalid \"until\" field value is not a multiple of the minutes for each timestep: UNTIL: 01:40\n   **   ~~~   ** Other errors may result. Occurred in Day Schedule=REFRIGERATION CASE 3 DEFROST SCHEDULE_dy_1\n   ** Warning ** ProcessScheduleInput: DecodeHHMMField, Invalid \"until\" field value is not a multiple of the minutes for each timestep: UNTIL: 04:16\n   **   ~~~   ** Other errors may result. Occurred in Day Schedule=REFRIGERATION CASE 3 DEFROST SCHEDULE_dy_1\n   ** Warning ** ProcessScheduleInput: DecodeHHMMField, Invalid \"until\" field value is not a multiple of the minutes for each timestep: UNTIL: 04:41\n   **   ~~~   ** Other errors may result. Occurred in Day Schedule=REFRIGERATION CASE 3 DEFROST SCHEDULE_dy_1\n   ** Warning ** ProcessScheduleInput: DecodeHHMMField, Invalid \"until\" field value is not a multiple of the minutes for each timestep: UNTIL: 07:17\n   **   ~~~   ** Other errors may result. Occurred in Day Schedule=REFRIGERATION CASE 3 DEFROST SCHEDULE_dy_1\n   ** Warning ** ProcessScheduleInput: DecodeHHMMField, Invalid \"until\" field value is not a multiple of the minutes for each timestep: UNTIL: 07:42\n   **   ~~~   ** Other errors may result. Occurred in Day Schedule=REFRIGERATION CASE 3 DEFROST SCHEDULE_dy_1\n   ** Warning ** ProcessScheduleInput: DecodeHHMMField, Invalid \"until\" field value is not a multiple of the minutes for each timestep: UNTIL: 10:18\n   **   ~~~   ** Other errors may result. Occurred in Day Schedule=REFRIGERATION CASE 3 DEFROST SCHEDULE_dy_1\n   ** Warning ** ProcessScheduleInput: DecodeHHMMField, Invalid \"until\" field value is not a multiple of the minutes for each timestep: UNTIL: 10:43\n   **   ~~~   ** Other errors may result. Occurred in Day Schedule=REFRIGERATION CASE 3 DEFROST SCHEDULE_dy_1\n   ** Warning ** ProcessScheduleInput: DecodeHHMMField, Invalid \"until\" field value is not a multiple of the minutes for each timestep: UNTIL: 14:19\n   **   ~~~   ** Other errors may result. Occurred in Day Schedule=REFRIGERATION CASE 3 DEFROST SCHEDULE_dy_1\n   ** Warning ** ProcessScheduleInput: DecodeHHMMField, Invalid \"until\" field value is not a multiple of the minutes for each timestep: UNTIL: 14:44\n   **   ~~~   ** Other errors may result. Occurred in Day Schedule=REFRIGERATION CASE 3 DEFROST SCHEDULE_dy_1\n   ** Warning ** ProcessScheduleInput: DecodeHHMMField, Invalid \"until\" field value is not a multiple of the minutes for each timestep: UNTIL: 17:20\n   **   ~~~   ** Other errors may result. Occurred in Day Schedule=REFRIGERATION CASE 3 DEFROST SCHEDULE_dy_1\n   ** Warning ** ProcessScheduleInput: DecodeHHMMField, Invalid \"until\" field value is not a multiple of the minutes for each timestep: UNTIL: 20:21\n   **   ~~~   ** Other errors may result. Occurred in Day Schedule=REFRIGERATION CASE 3 DEFROST SCHEDULE_dy_1\n   ** Warning ** ProcessScheduleInput: DecodeHHMMField, Invalid \"until\" field value is not a multiple of the minutes for each timestep: UNTIL: 20:46\n   **   ~~~   ** Other errors may result. Occurred in Day Schedule=REFRIGERATION CASE 3 DEFROST SCHEDULE_dy_1\n   ** Warning ** ProcessScheduleInput: DecodeHHMMField, Invalid \"until\" field value is not a multiple of the minutes for each timestep: UNTIL: 23:22\n   **   ~~~   ** Other errors may result. Occurred in Day Schedule=REFRIGERATION CASE 3 DEFROST SCHEDULE_dy_1\n   ** Warning ** ProcessScheduleInput: DecodeHHMMField, Invalid \"until\" field value is not a multiple of the minutes for each timestep: UNTIL: 23:47\n   **   ~~~   ** Other errors may result. Occurred in Day Schedule=REFRIGERATION CASE 3 DEFROST SCHEDULE_dy_1\n   ** Warning ** ProcessScheduleInput: Schedule:Compact=\"REFRIGERATION CASE 3 DEFROST DRIP DOWN SCHEDULE\", Blank Schedule Type Limits Name input -- will not be validated.\n   ** Warning ** ProcessScheduleInput: DecodeHHMMField, Invalid \"until\" field value is not a multiple of the minutes for each timestep: UNTIL: 04:16\n   **   ~~~   ** Other errors may result. Occurred in Day Schedule=REFRIGERATION CASE 3 DEFROST DRIP DOWN SCHEDULE_dy_1\n   ** Warning ** ProcessScheduleInput: DecodeHHMMField, Invalid \"until\" field value is not a multiple of the minutes for each timestep: UNTIL: 04:46\n   **   ~~~   ** Other errors may result. Occurred in Day Schedule=REFRIGERATION CASE 3 DEFROST DRIP DOWN SCHEDULE_dy_1\n   ** Warning ** ProcessScheduleInput: DecodeHHMMField, Invalid \"until\" field value is not a multiple of the minutes for each timestep: UNTIL: 07:17\n   **   ~~~   ** Other errors may result. Occurred in Day Schedule=REFRIGERATION CASE 3 DEFROST DRIP DOWN SCHEDULE_dy_1\n   ** Warning ** ProcessScheduleInput: DecodeHHMMField, Invalid \"until\" field value is not a multiple of the minutes for each timestep: UNTIL: 07:47\n   **   ~~~   ** Other errors may result. Occurred in Day Schedule=REFRIGERATION CASE 3 DEFROST DRIP DOWN SCHEDULE_dy_1\n   ** Warning ** ProcessScheduleInput: DecodeHHMMField, Invalid \"until\" field value is not a multiple of the minutes for each timestep: UNTIL: 10:18\n   **   ~~~   ** Other errors may result. Occurred in Day Schedule=REFRIGERATION CASE 3 DEFROST DRIP DOWN SCHEDULE_dy_1\n   ** Warning ** ProcessScheduleInput: DecodeHHMMField, Invalid \"until\" field value is not a multiple of the minutes for each timestep: UNTIL: 10:48\n   **   ~~~   ** Other errors may result. Occurred in Day Schedule=REFRIGERATION CASE 3 DEFROST DRIP DOWN SCHEDULE_dy_1\n   ** Warning ** ProcessScheduleInput: DecodeHHMMField, Invalid \"until\" field value is not a multiple of the minutes for each timestep: UNTIL: 14:19\n   **   ~~~   ** Other errors may result. Occurred in Day Schedule=REFRIGERATION CASE 3 DEFROST DRIP DOWN SCHEDULE_dy_1\n   ** Warning ** ProcessScheduleInput: DecodeHHMMField, Invalid \"until\" field value is not a multiple of the minutes for each timestep: UNTIL: 14:49\n   **   ~~~   ** Other errors may result. Occurred in Day Schedule=REFRIGERATION CASE 3 DEFROST DRIP DOWN SCHEDULE_dy_1\n   ** Warning ** ProcessScheduleInput: DecodeHHMMField, Invalid \"until\" field value is not a multiple of the minutes for each timestep: UNTIL: 17:20\n   **   ~~~   ** Other errors may result. Occurred in Day Schedule=REFRIGERATION CASE 3 DEFROST DRIP DOWN SCHEDULE_dy_1\n   ** Warning ** ProcessScheduleInput: DecodeHHMMField, Invalid \"until\" field value is not a multiple of the minutes for each timestep: UNTIL: 17:50\n   **   ~~~   ** Other errors may result. Occurred in Day Schedule=REFRIGERATION CASE 3 DEFROST DRIP DOWN SCHEDULE_dy_1\n   ** Warning ** ProcessScheduleInput: DecodeHHMMField, Invalid \"until\" field value is not a multiple of the minutes for each timestep: UNTIL: 20:21\n   **   ~~~   ** Other errors may result. Occurred in Day Schedule=REFRIGERATION CASE 3 DEFROST DRIP DOWN SCHEDULE_dy_1\n   ** Warning ** ProcessScheduleInput: DecodeHHMMField, Invalid \"until\" field value is not a multiple of the minutes for each timestep: UNTIL: 20:51\n   **   ~~~   ** Other errors may result. Occurred in Day Schedule=REFRIGERATION CASE 3 DEFROST DRIP DOWN SCHEDULE_dy_1\n   ** Warning ** ProcessScheduleInput: DecodeHHMMField, Invalid \"until\" field value is not a multiple of the minutes for each timestep: UNTIL: 23:22\n   **   ~~~   ** Other errors may result. Occurred in Day Schedule=REFRIGERATION CASE 3 DEFROST DRIP DOWN SCHEDULE_dy_1\n   ** Warning ** ProcessScheduleInput: DecodeHHMMField, Invalid \"until\" field value is not a multiple of the minutes for each timestep: UNTIL: 23:52\n   **   ~~~   ** Other errors may result. Occurred in Day Schedule=REFRIGERATION CASE 3 DEFROST DRIP DOWN SCHEDULE_dy_1\n   ** Warning ** ProcessScheduleInput: Schedule:Compact=\"REFRIGERATION WALK IN 3 DEFROST SCHEDULE\", Blank Schedule Type Limits Name input -- will not be validated.\n   ** Warning ** ProcessScheduleInput: DecodeHHMMField, Invalid \"until\" field value is not a multiple of the minutes for each timestep: UNTIL: 01:40\n   **   ~~~   ** Other errors may result. Occurred in Day Schedule=REFRIGERATION WALK IN 3 DEFROST SCHEDULE_dy_1\n   ** Warning ** ProcessScheduleInput: DecodeHHMMField, Invalid \"until\" field value is not a multiple of the minutes for each timestep: UNTIL: 04:16\n   **   ~~~   ** Other errors may result. Occurred in Day Schedule=REFRIGERATION WALK IN 3 DEFROST SCHEDULE_dy_1\n   ** Warning ** ProcessScheduleInput: DecodeHHMMField, Invalid \"until\" field value is not a multiple of the minutes for each timestep: UNTIL: 04:41\n   **   ~~~   ** Other errors may result. Occurred in Day Schedule=REFRIGERATION WALK IN 3 DEFROST SCHEDULE_dy_1\n   ** Warning ** ProcessScheduleInput: DecodeHHMMField, Invalid \"until\" field value is not a multiple of the minutes for each timestep: UNTIL: 07:17\n   **   ~~~   ** Other errors may result. Occurred in Day Schedule=REFRIGERATION WALK IN 3 DEFROST SCHEDULE_dy_1\n   ** Warning ** ProcessScheduleInput: DecodeHHMMField, Invalid \"until\" field value is not a multiple of the minutes for each timestep: UNTIL: 07:42\n   **   ~~~   ** Other errors may result. Occurred in Day Schedule=REFRIGERATION WALK IN 3 DEFROST SCHEDULE_dy_1\n   ** Warning ** ProcessScheduleInput: DecodeHHMMField, Invalid \"until\" field value is not a multiple of the minutes for each timestep: UNTIL: 10:18\n   **   ~~~   ** Other errors may result. Occurred in Day Schedule=REFRIGERATION WALK IN 3 DEFROST SCHEDULE_dy_1\n   ** Warning ** ProcessScheduleInput: DecodeHHMMField, Invalid \"until\" field value is not a multiple of the minutes for each timestep: UNTIL: 10:43\n   **   ~~~   ** Other errors may result. Occurred in Day Schedule=REFRIGERATION WALK IN 3 DEFROST SCHEDULE_dy_1\n   ** Warning ** ProcessScheduleInput: DecodeHHMMField, Invalid \"until\" field value is not a multiple of the minutes for each timestep: UNTIL: 14:19\n   **   ~~~   ** Other errors may result. Occurred in Day Schedule=REFRIGERATION WALK IN 3 DEFROST SCHEDULE_dy_1\n   ** Warning ** ProcessScheduleInput: DecodeHHMMField, Invalid \"until\" field value is not a multiple of the minutes for each timestep: UNTIL: 14:44\n   **   ~~~   ** Other errors may result. Occurred in Day Schedule=REFRIGERATION WALK IN 3 DEFROST SCHEDULE_dy_1\n   ** Warning ** ProcessScheduleInput: DecodeHHMMField, Invalid \"until\" field value is not a multiple of the minutes for each timestep: UNTIL: 17:20\n   **   ~~~   ** Other errors may result. Occurred in Day Schedule=REFRIGERATION WALK IN 3 DEFROST SCHEDULE_dy_1\n   ** Warning ** ProcessScheduleInput: DecodeHHMMField, Invalid \"until\" field value is not a multiple of the minutes for each timestep: UNTIL: 20:21\n   **   ~~~   ** Other errors may result. Occurred in Day Schedule=REFRIGERATION WALK IN 3 DEFROST SCHEDULE_dy_1\n   ** Warning ** ProcessScheduleInput: DecodeHHMMField, Invalid \"until\" field value is not a multiple of the minutes for each timestep: UNTIL: 20:46\n   **   ~~~   ** Other errors may result. Occurred in Day Schedule=REFRIGERATION WALK IN 3 DEFROST SCHEDULE_dy_1\n   ** Warning ** ProcessScheduleInput: DecodeHHMMField, Invalid \"until\" field value is not a multiple of the minutes for each timestep: UNTIL: 23:22\n   **   ~~~   ** Other errors may result. Occurred in Day Schedule=REFRIGERATION WALK IN 3 DEFROST SCHEDULE_dy_1\n   ** Warning ** ProcessScheduleInput: DecodeHHMMField, Invalid \"until\" field value is not a multiple of the minutes for each timestep: UNTIL: 23:47\n   **   ~~~   ** Other errors may result. Occurred in Day Schedule=REFRIGERATION WALK IN 3 DEFROST SCHEDULE_dy_1\n   ** Warning ** ProcessScheduleInput: Schedule:Compact=\"REFRIGERATION WALK IN 3 DEFROST DRIP DOWN SCHEDULE\", Blank Schedule Type Limits Name input -- will not be validated.\n   ** Warning ** ProcessScheduleInput: DecodeHHMMField, Invalid \"until\" field value is not a multiple of the minutes for each timestep: UNTIL: 04:16\n   **   ~~~   ** Other errors may result. Occurred in Day Schedule=REFRIGERATION WALK IN 3 DEFROST DRIP DOWN SCHEDULE_dy_1\n   ** Warning ** ProcessScheduleInput: DecodeHHMMField, Invalid \"until\" field value is not a multiple of the minutes for each timestep: UNTIL: 04:46\n   **   ~~~   ** Other errors may result. Occurred in Day Schedule=REFRIGERATION WALK IN 3 DEFROST DRIP DOWN SCHEDULE_dy_1\n   ** Warning ** ProcessScheduleInput: DecodeHHMMField, Invalid \"until\" field value is not a multiple of the minutes for each timestep: UNTIL: 07:17\n   **   ~~~   ** Other errors may result. Occurred in Day Schedule=REFRIGERATION WALK IN 3 DEFROST DRIP DOWN SCHEDULE_dy_1\n   ** Warning ** ProcessScheduleInput: DecodeHHMMField, Invalid \"until\" field value is not a multiple of the minutes for each timestep: UNTIL: 07:47\n   **   ~~~   ** Other errors may result. Occurred in Day Schedule=REFRIGERATION WALK IN 3 DEFROST DRIP DOWN SCHEDULE_dy_1\n   ** Warning ** ProcessScheduleInput: DecodeHHMMField, Invalid \"until\" field value is not a multiple of the minutes for each timestep: UNTIL: 10:18\n   **   ~~~   ** Other errors may result. Occurred in Day Schedule=REFRIGERATION WALK IN 3 DEFROST DRIP DOWN SCHEDULE_dy_1\n   ** Warning ** ProcessScheduleInput: DecodeHHMMField, Invalid \"until\" field value is not a multiple of the minutes for each timestep: UNTIL: 10:48\n   **   ~~~   ** Other errors may result. Occurred in Day Schedule=REFRIGERATION WALK IN 3 DEFROST DRIP DOWN SCHEDULE_dy_1\n   ** Warning ** ProcessScheduleInput: DecodeHHMMField, Invalid \"until\" field value is not a multiple of the minutes for each timestep: UNTIL: 14:19\n   **   ~~~   ** Other errors may result. Occurred in Day Schedule=REFRIGERATION WALK IN 3 DEFROST DRIP DOWN SCHEDULE_dy_1\n   ** Warning ** ProcessScheduleInput: DecodeHHMMField, Invalid \"until\" field value is not a multiple of the minutes for each timestep: UNTIL: 14:49\n   **   ~~~   ** Other errors may result. Occurred in Day Schedule=REFRIGERATION WALK IN 3 DEFROST DRIP DOWN SCHEDULE_dy_1\n   ** Warning ** ProcessScheduleInput: DecodeHHMMField, Invalid \"until\" field value is not a multiple of the minutes for each timestep: UNTIL: 17:20\n   **   ~~~   ** Other errors may result. Occurred in Day Schedule=REFRIGERATION WALK IN 3 DEFROST DRIP DOWN SCHEDULE_dy_1\n   ** Warning ** ProcessScheduleInput: DecodeHHMMField, Invalid \"until\" field value is not a multiple of the minutes for each timestep: UNTIL: 17:50\n   **   ~~~   ** Other errors may result. Occurred in Day Schedule=REFRIGERATION WALK IN 3 DEFROST DRIP DOWN SCHEDULE_dy_1\n   ** Warning ** ProcessScheduleInput: DecodeHHMMField, Invalid \"until\" field value is not a multiple of the minutes for each timestep: UNTIL: 20:21\n   **   ~~~   ** Other errors may result. Occurred in Day Schedule=REFRIGERATION WALK IN 3 DEFROST DRIP DOWN SCHEDULE_dy_1\n   ** Warning ** ProcessScheduleInput: DecodeHHMMField, Invalid \"until\" field value is not a multiple of the minutes for each timestep: UNTIL: 20:51\n   **   ~~~   ** Other errors may result. Occurred in Day Schedule=REFRIGERATION WALK IN 3 DEFROST DRIP DOWN SCHEDULE_dy_1\n   ** Warning ** ProcessScheduleInput: DecodeHHMMField, Invalid \"until\" field value is not a multiple of the minutes for each timestep: UNTIL: 23:22\n   **   ~~~   ** Other errors may result. Occurred in Day Schedule=REFRIGERATION WALK IN 3 DEFROST DRIP DOWN SCHEDULE_dy_1\n   ** Warning ** ProcessScheduleInput: DecodeHHMMField, Invalid \"until\" field value is not a multiple of the minutes for each timestep: UNTIL: 23:52\n   **   ~~~   ** Other errors may result. Occurred in Day Schedule=REFRIGERATION WALK IN 3 DEFROST DRIP DOWN SCHEDULE_dy_1\n   ** Warning ** ProcessScheduleInput: Schedule:Constant=\"ALWAYS OFF DISCRETE\", Blank Schedule Type Limits Name input -- will not be validated.\n   ** Warning ** ProcessScheduleInput: Schedule:Constant=\"ALWAYS ON CONTINUOUS\", Blank Schedule Type Limits Name input -- will not be validated.\n   ** Warning ** GetHTSurfaceData: Surfaces with interface to Ground found but no \"Ground Temperatures\" were input.",
   "hash" : "C618B751",
   "seed_file" : "in.osm",
   "started_at" : "20180205T201411Z",
   "steps" : [
      {
         "arguments" : {},
         "measure_dir_name" : "openstudio_results"
      }
   ],
   "updated_at" : "20180205T201424Z",
   "weather_file" : "../../weatherdata/USA_IL_Chicago-OHare.Intl.AP.725300_TMY3.epw"
}
