{
  "completed_status": "Success",
  "current_step": 1,
  "eplusout_err": [
    "Program Version,EnergyPlus, Version 8.9.0-eba93e8e1b, ",
    "   ************* Beginning Zone Sizing Calculations",
    "   ** Warning ** ProcessScheduleInput: Schedule:Day:Interval=\"SCHEDULE DAY 2\", Blank Schedule Type Limits Name input -- will not be validated.",
    "   ** Warning ** ProcessScheduleInput: Schedule:Day:Interval=\"SCHEDULE DAY 3\", Blank Schedule Type Limits Name input -- will not be validated.",
    "   ** Warning ** ProcessScheduleInput: Schedule:Day:Interval=\"SCHEDULE DAY 4\", Blank Schedule Type Limits Name input -- will not be validated.",
    "   ** Warning ** ProcessScheduleInput: Schedule:Day:Interval=\"SCHEDULE DAY 5\", Blank Schedule Type Limits Name input -- will not be validated.",
    "   ** Warning ** ProcessScheduleInput: Schedule:Compact=\"REFRIGERATION CASE 3 DEFROST SCHEDULE\", Blank Schedule Type Limits Name input -- will not be validated.",
    "   ** Warning ** ProcessScheduleInput: DecodeHHMMField, Invalid \"until\" field value is not a multiple of the minutes for each timestep: UNTIL: 01:40",
    "   **   ~~~   ** Other errors may result. Occurred in Day Schedule=REFRIGERATION CASE 3 DEFROST SCHEDULE_dy_1",
    "   ** Warning ** ProcessScheduleInput: DecodeHHMMField, Invalid \"until\" field value is not a multiple of the minutes for each timestep: UNTIL: 04:16",
    "   **   ~~~   ** Other errors may result. Occurred in Day Schedule=REFRIGERATION CASE 3 DEFROST SCHEDULE_dy_1",
    "   ** Warning ** ProcessScheduleInput: DecodeHHMMField, Invalid \"until\" field value is not a multiple of the minutes for each timestep: UNTIL: 04:41",
    "   **   ~~~   ** Other errors may result. Occurred in Day Schedule=REFRIGERATION CASE 3 DEFROST SCHEDULE_dy_1",
    "   ** Warning ** ProcessScheduleInput: DecodeHHMMField, Invalid \"until\" field value is not a multiple of the minutes for each timestep: UNTIL: 07:17",
    "   **   ~~~   ** Other errors may result. Occurred in Day Schedule=REFRIGERATION CASE 3 DEFROST SCHEDULE_dy_1",
    "   ** Warning ** ProcessScheduleInput: DecodeHHMMField, Invalid \"until\" field value is not a multiple of the minutes for each timestep: UNTIL: 07:42",
    "   **   ~~~   ** Other errors may result. Occurred in Day Schedule=REFRIGERATION CASE 3 DEFROST SCHEDULE_dy_1",
    "   ** Warning ** ProcessScheduleInput: DecodeHHMMField, Invalid \"until\" field value is not a multiple of the minutes for each timestep: UNTIL: 10:18",
    "   **   ~~~   ** Other errors may result. Occurred in Day Schedule=REFRIGERATION CASE 3 DEFROST SCHEDULE_dy_1",
    "   ** Warning ** ProcessScheduleInput: DecodeHHMMField, Invalid \"until\" field value is not a multiple of the minutes for each timestep: UNTIL: 10:43",
    "   **   ~~~   ** Other errors may result. Occurred in Day Schedule=REFRIGERATION CASE 3 DEFROST SCHEDULE_dy_1",
    "   ** Warning ** ProcessScheduleInput: DecodeHHMMField, Invalid \"until\" field value is not a multiple of the minutes for each timestep: UNTIL: 14:19",
    "   **   ~~~   ** Other errors may result. Occurred in Day Schedule=REFRIGERATION CASE 3 DEFROST SCHEDULE_dy_1",
    "   ** Warning ** ProcessScheduleInput: DecodeHHMMField, Invalid \"until\" field value is not a multiple of the minutes for each timestep: UNTIL: 14:44",
    "   **   ~~~   ** Other errors may result. Occurred in Day Schedule=REFRIGERATION CASE 3 DEFROST SCHEDULE_dy_1",
    "   ** Warning ** ProcessScheduleInput: DecodeHHMMField, Invalid \"until\" field value is not a multiple of the minutes for each timestep: UNTIL: 17:20",
    "   **   ~~~   ** Other errors may result. Occurred in Day Schedule=REFRIGERATION CASE 3 DEFROST SCHEDULE_dy_1",
    "   ** Warning ** ProcessScheduleInput: DecodeHHMMField, Invalid \"until\" field value is not a multiple of the minutes for each timestep: UNTIL: 20:21",
    "   **   ~~~   ** Other errors may result. Occurred in Day Schedule=REFRIGERATION CASE 3 DEFROST SCHEDULE_dy_1",
    "   ** Warning ** ProcessScheduleInput: DecodeHHMMField, Invalid \"until\" field value is not a multiple of the minutes for each timestep: UNTIL: 20:46",
    "   **   ~~~   ** Other errors may result. Occurred in Day Schedule=REFRIGERATION CASE 3 DEFROST SCHEDULE_dy_1",
    "   ** Warning ** ProcessScheduleInput: DecodeHHMMField, Invalid \"until\" field value is not a multiple of the minutes for each timestep: UNTIL: 23:22",
    "   **   ~~~   ** Other errors may result. Occurred in Day Schedule=REFRIGERATION CASE 3 DEFROST SCHEDULE_dy_1",
    "   ** Warning ** ProcessScheduleInput: DecodeHHMMField, Invalid \"until\" field value is not a multiple of the minutes for each timestep: UNTIL: 23:47",
    "   **   ~~~   ** Other errors may result. Occurred in Day Schedule=REFRIGERATION CASE 3 DEFROST SCHEDULE_dy_1",
    "   ** Warning ** ProcessScheduleInput: Schedule:Compact=\"REFRIGERATION CASE 3 DEFROST DRIP DOWN SCHEDULE\", Blank Schedule Type Limits Name input -- will not be validated.",
    "   ** Warning ** ProcessScheduleInput: DecodeHHMMField, Invalid \"until\" field value is not a multiple of the minutes for each timestep: UNTIL: 04:16",
    "   **   ~~~   ** Other errors may result. Occurred in Day Schedule=REFRIGERATION CASE 3 DEFROST DRIP DOWN SCHEDULE_dy_1",
    "   ** Warning ** ProcessScheduleInput: DecodeHHMMField, Invalid \"until\" field value is not a multiple of the minutes for each timestep: UNTIL: 04:46",
    "   **   ~~~   ** Other errors may result. Occurred in Day Schedule=REFRIGERATION CASE 3 DEFROST DRIP DOWN SCHEDULE_dy_1",
    "   ** Warning ** ProcessScheduleInput: DecodeHHMMField, Invalid \"until\" field value is not a multiple of the minutes for each timestep: UNTIL: 07:17",
    "   **   ~~~   ** Other errors may result. Occurred in Day Schedule=REFRIGERATION CASE 3 DEFROST DRIP DOWN SCHEDULE_dy_1",
    "   ** Warning ** ProcessScheduleInput: DecodeHHMMField, Invalid \"until\" field value is not a multiple of the minutes for each timestep: UNTIL: 07:47",
    "   **   ~~~   ** Other errors may result. Occurred in Day Schedule=REFRIGERATION CASE 3 DEFROST DRIP DOWN SCHEDULE_dy_1",
    "   ** Warning ** ProcessScheduleInput: DecodeHHMMField, Invalid \"until\" field value is not a multiple of the minutes for each timestep: UNTIL: 10:18",
    "   **   ~~~   ** Other errors may result. Occurred in Day Schedule=REFRIGERATION CASE 3 DEFROST DRIP DOWN SCHEDULE_dy_1",
    "   ** Warning ** ProcessScheduleInput: DecodeHHMMField, Invalid \"until\" field value is not a multiple of the minutes for each timestep: UNTIL: 10:48",
    "   **   ~~~   ** Other errors may result. Occurred in Day Schedule=REFRIGERATION CASE 3 DEFROST DRIP DOWN SCHEDULE_dy_1",
    "   ** Warning ** ProcessScheduleInput: DecodeHHMMField, Invalid \"until\" field value is not a multiple of the minutes for each timestep: UNTIL: 14:19",
    "   **   ~~~   ** Other errors may result. Occurred in Day Schedule=REFRIGERATION CASE 3 DEFROST DRIP DOWN SCHEDULE_dy_1",
    "   ** Warning ** ProcessScheduleInput: DecodeHHMMField, Invalid \"until\" field value is not a multiple of the minutes for each timestep: UNTIL: 14:49",
    "   **   ~~~   ** Other errors may result. Occurred in Day Schedule=REFRIGERATION CASE 3 DEFROST DRIP DOWN SCHEDULE_dy_1",
    "   ** Warning ** ProcessScheduleInput: DecodeHHMMField, Invalid \"until\" field value is not a multiple of the minutes for each timestep: UNTIL: 17:20",
    "   **   ~~~   ** Other errors may result. Occurred in Day Schedule=REFRIGERATION CASE 3 DEFROST DRIP DOWN SCHEDULE_dy_1",
    "   ** Warning ** ProcessScheduleInput: DecodeHHMMField, Invalid \"until\" field value is not a multiple of the minutes for each timestep: UNTIL: 17:50",
    "   **   ~~~   ** Other errors may result. Occurred in Day Schedule=REFRIGERATION CASE 3 DEFROST DRIP DOWN SCHEDULE_dy_1",
    "   ** Warning ** ProcessScheduleInput: DecodeHHMMField, Invalid \"until\" field value is not a multiple of the minutes for each timestep: UNTIL: 20:21",
    "   **   ~~~   ** Other errors may result. Occurred in Day Schedule=REFRIGERATION CASE 3 DEFROST DRIP DOWN SCHEDULE_dy_1",
    "   ** Warning ** ProcessScheduleInput: DecodeHHMMField, Invalid \"until\" field value is not a multiple of the minutes for each timestep: UNTIL: 20:51",
    "   **   ~~~   ** Other errors may result. Occurred in Day Schedule=REFRIGERATION CASE 3 DEFROST DRIP DOWN SCHEDULE_dy_1",
    "   ** Warning ** ProcessScheduleInput: DecodeHHMMField, Invalid \"until\" field value is not a multiple of the minutes for each timestep: UNTIL: 23:22",
    "   **   ~~~   ** Other errors may result. Occurred in Day Schedule=REFRIGERATION CASE 3 DEFROST DRIP DOWN SCHEDULE_dy_1",
    "   ** Warning ** ProcessScheduleInput: DecodeHHMMField, Invalid \"until\" field value is not a multiple of the minutes for each timestep: UNTIL: 23:52",
    "   **   ~~~   ** Other errors may result. Occurred in Day Schedule=REFRIGERATION CASE 3 DEFROST DRIP DOWN SCHEDULE_dy_1",
    "   ** Warning ** ProcessScheduleInput: Schedule:Compact=\"REFRIGERATION WALK IN 3 DEFROST SCHEDULE\", Blank Schedule Type Limits Name input -- will not be validated.",
    "   ** Warning ** ProcessScheduleInput: DecodeHHMMField, Invalid \"until\" field value is not a multiple of the minutes for each timestep: UNTIL: 01:40",
    "   **   ~~~   ** Other errors may result. Occurred in Day Schedule=REFRIGERATION WALK IN 3 DEFROST SCHEDULE_dy_1",
    "   ** Warning ** ProcessScheduleInput: DecodeHHMMField, Invalid \"until\" field value is not a multiple of the minutes for each timestep: UNTIL: 04:16",
    "   **   ~~~   ** Other errors may result. Occurred in Day Schedule=REFRIGERATION WALK IN 3 DEFROST SCHEDULE_dy_1",
    "   ** Warning ** ProcessScheduleInput: DecodeHHMMField, Invalid \"until\" field value is not a multiple of the minutes for each timestep: UNTIL: 04:41",
    "   **   ~~~   ** Other errors may result. Occurred in Day Schedule=REFRIGERATION WALK IN 3 DEFROST SCHEDULE_dy_1",
    "   ** Warning ** ProcessScheduleInput: DecodeHHMMField, Invalid \"until\" field value is not a multiple of the minutes for each timestep: UNTIL: 07:17",
    "   **   ~~~   ** Other errors may result. Occurred in Day Schedule=REFRIGERATION WALK IN 3 DEFROST SCHEDULE_dy_1",
    "   ** Warning ** ProcessScheduleInput: DecodeHHMMField, Invalid \"until\" field value is not a multiple of the minutes for each timestep: UNTIL: 07:42",
    "   **   ~~~   ** Other errors may result. Occurred in Day Schedule=REFRIGERATION WALK IN 3 DEFROST SCHEDULE_dy_1",
    "   ** Warning ** ProcessScheduleInput: DecodeHHMMField, Invalid \"until\" field value is not a multiple of the minutes for each timestep: UNTIL: 10:18",
    "   **   ~~~   ** Other errors may result. Occurred in Day Schedule=REFRIGERATION WALK IN 3 DEFROST SCHEDULE_dy_1",
    "   ** Warning ** ProcessScheduleInput: DecodeHHMMField, Invalid \"until\" field value is not a multiple of the minutes for each timestep: UNTIL: 10:43",
    "   **   ~~~   ** Other errors may result. Occurred in Day Schedule=REFRIGERATION WALK IN 3 DEFROST SCHEDULE_dy_1",
    "   ** Warning ** ProcessScheduleInput: DecodeHHMMField, Invalid \"until\" field value is not a multiple of the minutes for each timestep: UNTIL: 14:19",
    "   **   ~~~   ** Other errors may result. Occurred in Day Schedule=REFRIGERATION WALK IN 3 DEFROST SCHEDULE_dy_1",
    "   ** Warning ** ProcessScheduleInput: DecodeHHMMField, Invalid \"until\" field value is not a multiple of the minutes for each timestep: UNTIL: 14:44",
    "   **   ~~~   ** Other errors may result. Occurred in Day Schedule=REFRIGERATION WALK IN 3 DEFROST SCHEDULE_dy_1",
    "   ** Warning ** ProcessScheduleInput: DecodeHHMMField, Invalid \"until\" field value is not a multiple of the minutes for each timestep: UNTIL: 17:20",
    "   **   ~~~   ** Other errors may result. Occurred in Day Schedule=REFRIGERATION WALK IN 3 DEFROST SCHEDULE_dy_1",
    "   ** Warning ** ProcessScheduleInput: DecodeHHMMField, Invalid \"until\" field value is not a multiple of the minutes for each timestep: UNTIL: 20:21",
    "   **   ~~~   ** Other errors may result. Occurred in Day Schedule=REFRIGERATION WALK IN 3 DEFROST SCHEDULE_dy_1",
    "   ** Warning ** ProcessScheduleInput: DecodeHHMMField, Invalid \"until\" field value is not a multiple of the minutes for each timestep: UNTIL: 20:46",
    "   **   ~~~   ** Other errors may result. Occurred in Day Schedule=REFRIGERATION WALK IN 3 DEFROST SCHEDULE_dy_1",
    "   ** Warning ** ProcessScheduleInput: DecodeHHMMField, Invalid \"until\" field value is not a multiple of the minutes for each timestep: UNTIL: 23:22",
    "   **   ~~~   ** Other errors may result. Occurred in Day Schedule=REFRIGERATION WALK IN 3 DEFROST SCHEDULE_dy_1",
    "   ** Warning ** ProcessScheduleInput: DecodeHHMMField, Invalid \"until\" field value is not a multiple of the minutes for each timestep: UNTIL: 23:47",
    "   **   ~~~   ** Other errors may result. Occurred in Day Schedule=REFRIGERATION WALK IN 3 DEFROST SCHEDULE_dy_1",
    "   ** Warning ** ProcessScheduleInput: Schedule:Compact=\"REFRIGERATION WALK IN 3 DEFROST DRIP DOWN SCHEDULE\", Blank Schedule Type Limits Name input -- will not be validated.",
    "   ** Warning ** ProcessScheduleInput: DecodeHHMMField, Invalid \"until\" field value is not a multiple of the minutes for each timestep: UNTIL: 04:16",
    "   **   ~~~   ** Other errors may result. Occurred in Day Schedule=REFRIGERATION WALK IN 3 DEFROST DRIP DOWN SCHEDULE_dy_1",
    "   ** Warning ** ProcessScheduleInput: DecodeHHMMField, Invalid \"until\" field value is not a multiple of the minutes for each timestep: UNTIL: 04:46",
    "   **   ~~~   ** Other errors may result. Occurred in Day Schedule=REFRIGERATION WALK IN 3 DEFROST DRIP DOWN SCHEDULE_dy_1",
    "   ** Warning ** ProcessScheduleInput: DecodeHHMMField, Invalid \"until\" field value is not a multiple of the minutes for each timestep: UNTIL: 07:17",
    "   **   ~~~   ** Other errors may result. Occurred in Day Schedule=REFRIGERATION WALK IN 3 DEFROST DRIP DOWN SCHEDULE_dy_1",
    "   ** Warning ** ProcessScheduleInput: DecodeHHMMField, Invalid \"until\" field value is not a multiple of the minutes for each timestep: UNTIL: 07:47",
    "   **   ~~~   ** Other errors may result. Occurred in Day Schedule=REFRIGERATION WALK IN 3 DEFROST DRIP DOWN SCHEDULE_dy_1",
    "   ** Warning ** ProcessScheduleInput: DecodeHHMMField, Invalid \"until\" field value is not a multiple of the minutes for each timestep: UNTIL: 10:18",
    "   **   ~~~   ** Other errors may result. Occurred in Day Schedule=REFRIGERATION WALK IN 3 DEFROST DRIP DOWN SCHEDULE_dy_1",
    "   ** Warning ** ProcessScheduleInput: DecodeHHMMField, Invalid \"until\" field value is not a multiple of the minutes for each timestep: UNTIL: 10:48",
    "   **   ~~~   ** Other errors may result. Occurred in Day Schedule=REFRIGERATION WALK IN 3 DEFROST DRIP DOWN SCHEDULE_dy_1",
    "   ** Warning ** ProcessScheduleInput: DecodeHHMMField, Invalid \"until\" field value is not a multiple of the minutes for each timestep: UNTIL: 14:19",
    "   **   ~~~   ** Other errors may result. Occurred in Day Schedule=REFRIGERATION WALK IN 3 DEFROST DRIP DOWN SCHEDULE_dy_1",
    "   ** Warning ** ProcessScheduleInput: DecodeHHMMField, Invalid \"until\" field value is not a multiple of the minutes for each timestep: UNTIL: 14:49",
    "   **   ~~~   ** Other errors may result. Occurred in Day Schedule=REFRIGERATION WALK IN 3 DEFROST DRIP DOWN SCHEDULE_dy_1",
    "   ** Warning ** ProcessScheduleInput: DecodeHHMMField, Invalid \"until\" field value is not a multiple of the minutes for each timestep: UNTIL: 17:20",
    "   **   ~~~   ** Other errors may result. Occurred in Day Schedule=REFRIGERATION WALK IN 3 DEFROST DRIP DOWN SCHEDULE_dy_1",
    "   ** Warning ** ProcessScheduleInput: DecodeHHMMField, Invalid \"until\" field value is not a multiple of the minutes for each timestep: UNTIL: 17:50",
    "   **   ~~~   ** Other errors may result. Occurred in Day Schedule=REFRIGERATION WALK IN 3 DEFROST DRIP DOWN SCHEDULE_dy_1",
    "   ** Warning ** ProcessScheduleInput: DecodeHHMMField, Invalid \"until\" field value is not a multiple of the minutes for each timestep: UNTIL: 20:21",
    "   **   ~~~   ** Other errors may result. Occurred in Day Schedule=REFRIGERATION WALK IN 3 DEFROST DRIP DOWN SCHEDULE_dy_1",
    "   ** Warning ** ProcessScheduleInput: DecodeHHMMField, Invalid \"until\" field value is not a multiple of the minutes for each timestep: UNTIL: 20:51",
    "   **   ~~~   ** Other errors may result. Occurred in Day Schedule=REFRIGERATION WALK IN 3 DEFROST DRIP DOWN SCHEDULE_dy_1",
    "   ** Warning ** ProcessScheduleInput: DecodeHHMMField, Invalid \"until\" field value is not a multiple of the minutes for each timestep: UNTIL: 23:22",
    "   **   ~~~   ** Other errors may result. Occurred in Day Schedule=REFRIGERATION WALK IN 3 DEFROST DRIP DOWN SCHEDULE_dy_1",
    "   ** Warning ** ProcessScheduleInput: DecodeHHMMField, Invalid \"until\" field value is not a multiple of the minutes for each timestep: UNTIL: 23:52",
    "   **   ~~~   ** Other errors may result. Occurred in Day Schedule=REFRIGERATION WALK IN 3 DEFROST DRIP DOWN SCHEDULE_dy_1",
    "   ** Warning ** ProcessScheduleInput: Schedule:Constant=\"ALWAYS OFF DISCRETE\", Blank Schedule Type Limits Name input -- will not be validated.",
    "   ** Warning ** ProcessScheduleInput: Schedule:Constant=\"ALWAYS ON CONTINUOUS\", Blank Schedule Type Limits Name input -- will not be validated.",
    "   ** Warning ** GetHTSurfaceData: Surfaces with interface to Ground found but no \"Ground Temperatures\" were input.",
    "   **   ~~~   ** Found first in surface=SURFACE 25",
    "   **   ~~~   ** Defaults, constant throughout the year of (18.0) will be used.",
    "   ** Warning ** CheckUsedConstructions: There are 6 nominally unused constructions in input.",
    "   **   ~~~   ** For explicit details on each unused construction, use Output:Diagnostics,DisplayExtraWarnings;",
    "   ** Warning ** Refrigeration:Case=\"REFRIGERATION CASE 4\", Case Defrost Power per Unit Length for Case Defrost Type None or Off-Cycle will be set to 0 and simulation continues.",
    "   ** Warning ** Refrigeration:SecondarySystem=\"REFRIGERATION SECONDARY SYSTEM 1\" You may wish to check the system sizing. Total nominal refrigerating load is 19019 (Including cases, walk-ins, and pump heat).  The nominal secondary loop heat exchanger capacity is 35000",
    "   ** Warning ** Refrigeration:System=\"REFRIGERATION SYSTEM 2\", You may wish to check the system sizing. Total nominal cooling capacity is 44557W. Condenser capacity is 43100W. Nominal compressor capacity is 52789W.",
    "   ** Warning ** Refrigeration:System=\"REFRIGERATION SYSTEM 4\", The system specified minimum condensing temperature is greater than the rated condensing temperature for the cascade condenser. ",
    "   ** Warning ** Refrigeration:System=\"REFRIGERATION SYSTEM 5\", You may wish to check the system sizing. Total nominal cooling capacity is 64934W. Condenser capacity is 362105W. Nominal compressor capacity is 28579W.",
    "   ** Warning ** GetSimpleAirModelInputs: ZoneInfiltration:DesignFlowRate=\"STORY 1 CORE THERMAL ZONE BASELINE MODEL INFILTRATION\", Design Flow Rate Calculation Method specifies Flow per Exterior Surface Area, but Exterior Surface Area = 0.  0 Infiltration will result.",
    "   ** Warning ** Refrigeration:Condenser:WaterCooled REFRIGERATION CONDENSER WATER COOLED 1",
    "   **   ~~~   ** Water-cooled condenser inlet temp lower than minimum allowed temp. Check returning water temperature and/or minimum temperature setpoints relative to minimum allowed condensing temperature.",
    "   ** Warning ** Calculated design cooling load for zone=STORY 1 EAST PERIMETER THERMAL ZONE is zero.",
    "   **   ~~~   ** Check Sizing:Zone and ZoneControl:Thermostat inputs.",
    "   ** Warning ** Calculated design cooling load for zone=STORY 1 WEST PERIMETER THERMAL ZONE is zero.",
    "   **   ~~~   ** Check Sizing:Zone and ZoneControl:Thermostat inputs.",
    "   ************* Beginning System Sizing Calculations",
    "   ** Warning ** Since Zone Minimum Air Flow Input Method = CONSTANT, input for Fixed Minimum Air Flow Rate will be ignored.",
    "   **   ~~~   ** Occurs in AirTerminal:SingleDuct:VAV:Reheat = AIR TERMINAL SINGLE DUCT VAV REHEAT 1",
    "   ** Warning ** Since Zone Minimum Air Flow Input Method = CONSTANT, input for Fixed Minimum Air Flow Rate will be ignored.",
    "   **   ~~~   ** Occurs in AirTerminal:SingleDuct:VAV:Reheat = AIR TERMINAL SINGLE DUCT VAV REHEAT 2",
    "   ** Warning ** Since Zone Minimum Air Flow Input Method = CONSTANT, input for Fixed Minimum Air Flow Rate will be ignored.",
    "   **   ~~~   ** Occurs in AirTerminal:SingleDuct:VAV:Reheat = AIR TERMINAL SINGLE DUCT VAV REHEAT 3",
    "   ** Warning ** Since Zone Minimum Air Flow Input Method = CONSTANT, input for Fixed Minimum Air Flow Rate will be ignored.",
    "   **   ~~~   ** Occurs in AirTerminal:SingleDuct:VAV:Reheat = AIR TERMINAL SINGLE DUCT VAV REHEAT 4",
    "   ** Warning ** Since Zone Minimum Air Flow Input Method = CONSTANT, input for Fixed Minimum Air Flow Rate will be ignored.",
    "   **   ~~~   ** Occurs in AirTerminal:SingleDuct:VAV:Reheat = AIR TERMINAL SINGLE DUCT VAV REHEAT 5",
    "   ** Warning ** Since Zone Minimum Air Flow Input Method = CONSTANT, input for Fixed Minimum Air Flow Rate will be ignored.",
    "   **   ~~~   ** Occurs in AirTerminal:SingleDuct:VAV:Reheat = AIR TERMINAL SINGLE DUCT VAV REHEAT 6",
    "   ** Warning ** Since Zone Minimum Air Flow Input Method = CONSTANT, input for Fixed Minimum Air Flow Rate will be ignored.",
    "   **   ~~~   ** Occurs in AirTerminal:SingleDuct:VAV:Reheat = AIR TERMINAL SINGLE DUCT VAV REHEAT 7",
    "   ** Warning ** Since Zone Minimum Air Flow Input Method = CONSTANT, input for Fixed Minimum Air Flow Rate will be ignored.",
    "   **   ~~~   ** Occurs in AirTerminal:SingleDuct:VAV:Reheat = AIR TERMINAL SINGLE DUCT VAV REHEAT 8",
    "   ** Warning ** Since Zone Minimum Air Flow Input Method = CONSTANT, input for Fixed Minimum Air Flow Rate will be ignored.",
    "   **   ~~~   ** Occurs in AirTerminal:SingleDuct:VAV:Reheat = AIR TERMINAL SINGLE DUCT VAV REHEAT 9",
    "   ** Warning ** Since Zone Minimum Air Flow Input Method = CONSTANT, input for Fixed Minimum Air Flow Rate will be ignored.",
    "   **   ~~~   ** Occurs in AirTerminal:SingleDuct:VAV:Reheat = AIR TERMINAL SINGLE DUCT VAV REHEAT 10",
    "   ************* Beginning Plant Sizing Calculations",
    "   ** Warning ** Output:Meter: invalid Key Name=\"DISTRICTCOOLING:FACILITY\" - not found.",
    "   ** Warning ** Output:Meter: invalid Key Name=\"DISTRICTHEATING:FACILITY\" - not found.",
    "   ** Warning ** Output:Meter:MeterFileOnly requested for \"Electricity:Facility\" (TimeStep), already on \"Output:Meter\". Will report to both eplusout.eso and eplusout.mtr",
    "   ************* Testing Individual Branch Integrity",
    "   ************* All Branches passed integrity testing",
    "   ************* Testing Individual Supply Air Path Integrity",
    "   ************* All Supply Air Paths passed integrity testing",
    "   ************* Testing Individual Return Air Path Integrity",
    "   ************* All Return Air Paths passed integrity testing",
    "   ************* No node connection errors were found.",
    "   ************* Beginning Simulation",
    "   ** Warning ** Processing Monthly Tabular Reports: Variable names not valid for this simulation",
    "   **   ~~~   ** ...use Output:Diagnostics,DisplayExtraWarnings; to show more details on individual variables.",
    "   ** Warning ** CoolingTower:SingleSpeed \"COOLING TOWER SINGLE SPEED 1\"",
    "   **   ~~~   ** Cooling tower water outlet temperature (-0.08 C) is below the specified minimum condenser loop temp of 0.00 C",
    "   **   ~~~   **  Environment=RUN PERIOD 1, at Simulation time=01/01 00:15 - 00:30",
    "   ** Warning ** GetSpecificHeatGlycol: Temperature is out of range (too low) for fluid [WATER] specific heat supplied values **",
    "   **   ~~~   ** ..Called From:PlantLoopSolver::UpdateAnyLoopDemandAlterations,Temperature=[-8.38E-002], supplied data range=[0.00,125.00]",
    "   **   ~~~   **  Environment=RUN PERIOD 1, at Simulation time=01/01 00:15 - 00:30",
    "   ** Warning ** GetDensityGlycol: Temperature is out of range (too low) for fluid [WATER] density **",
    "   **   ~~~   ** ..Called From:NodeReportingCalc:NODE 62,Temperature=[-1.71], supplied data range=[0.00,100.00]",
    "   **   ~~~   **  Environment=RUN PERIOD 1, at Simulation time=01/01 01:30 - 01:45",
    "   ** Warning ** Refrigeration:System: REFRIGERATION SYSTEM 2",
    "   **   ~~~   **  The specified high-stage compressors for this system are unable to meet ",
    "   **   ~~~   **  the sum of the refrigerated case loads, subcooler loads (if any) and ",
    "   **   ~~~   **  low-stage compressor loads for this sytem.",
    "   ** Warning ** Plant Loop: CONDENSER WATER LOOP Demand Side is storing excess heat the majority of the time.",
    "   ** Warning ** Plant Loop: CONDENSER WATER LOOP Supply Side is storing excess heat the majority of the time.",
    "   ** Warning ** The resource referenced by LifeCycleCost:UsePriceEscalation= \"U.S. AVG  COMMERCIAL-ELECTRICITY\" has no energy cost. ",
    "   **   ~~~   ** ... It is likely that the wrong resource is used. The resource should match the meter used in Utility:Tariff.",
    "   ** Warning ** The resource referenced by LifeCycleCost:UsePriceEscalation= \"U.S. AVG  COMMERCIAL-DISTILLATE OIL\" has no energy cost. ",
    "   **   ~~~   ** ... It is likely that the wrong resource is used. The resource should match the meter used in Utility:Tariff.",
    "   ** Warning ** The resource referenced by LifeCycleCost:UsePriceEscalation= \"U.S. AVG  COMMERCIAL-RESIDUAL OIL\" has no energy cost. ",
    "   **   ~~~   ** ... It is likely that the wrong resource is used. The resource should match the meter used in Utility:Tariff.",
    "   ** Warning ** The resource referenced by LifeCycleCost:UsePriceEscalation= \"U.S. AVG  COMMERCIAL-NATURAL GAS\" has no energy cost. ",
    "   **   ~~~   ** ... It is likely that the wrong resource is used. The resource should match the meter used in Utility:Tariff.",
    "   ** Warning ** The resource referenced by LifeCycleCost:UsePriceEscalation= \"U.S. AVG  COMMERCIAL-COAL\" has no energy cost. ",
    "   **   ~~~   ** ... It is likely that the wrong resource is used. The resource should match the meter used in Utility:Tariff.",
    "   ************* Simulation Error Summary *************",
    "   ************* There are 4 unused schedules in input.",
    "   ************* There are 4 unused week schedules in input.",
    "   ************* There are 8 unused day schedules in input.",
    "   ************* Use Output:Diagnostics,DisplayUnusedSchedules; to see them.",
    "   *************",
    "   ************* ===== Recurring Error Summary =====",
    "   ************* The following recurring error messages occurred.",
    "   *************",
    "   *************  ** Warning ** Refrigeration:Condenser:WaterCooled REFRIGERATION CONDENSER WATER COOLED 1 - Condenser inlet temp lower than minimum allowed ... continues",
    "   *************  **   ~~~   **   This error occurred 151560 total times;",
    "   *************  **   ~~~   **   during Warmup 13167 times;",
    "   *************  **   ~~~   **   during Sizing 10224 times.",
    "   *************",
    "   *************  ** Warning ** Coil:Heating:Desuperheater COIL HEATING DESUPERHEATER 1 - Waste heat source temperature was too low to be useful.",
    "   *************  **   ~~~   **   This error occurred 123107 total times;",
    "   *************  **   ~~~   **   during Warmup 3002 times;",
    "   *************  **   ~~~   **   during Sizing 0 times.",
    "   *************",
    "   *************  ** Warning ** WaterHeating:Desuperheater COIL WATER HEATING DESUPERHEATER 1 - Waste heat source temperature was too low to be useful.",
    "   *************  **   ~~~   **   This error occurred 525334 total times;",
    "   *************  **   ~~~   **   during Warmup 8502 times;",
    "   *************  **   ~~~   **   during Sizing 0 times.",
    "   *************",
    "   *************  ** Warning ** Refrigeration:Condenser:WaterCooledREFRIGERATION CONDENSER WATER COOLED 1Water-cooled condenser has no cooling water flow. Heat is not being rejected from compressor rack condenser.",
    "   *************  **   ~~~   **   This error occurred 8 total times;",
    "   *************  **   ~~~   **   during Warmup 8 times;",
    "   *************  **   ~~~   **   during Sizing 0 times.",
    "   *************",
    "   *************  ** Warning ** GetSpecificHeatGlycol: Temperature out of range (too low) for fluid [WATER] specific heat **",
    "   *************  **   ~~~   **   This error occurred 7278 total times;",
    "   *************  **   ~~~   **   during Warmup 0 times;",
    "   *************  **   ~~~   **   during Sizing 0 times.",
    "   *************  **   ~~~   **   Max=-2.809147E-004 {C}  Min=-4.898253 {C}",
    "   *************",
    "   *************  ** Warning ** CoolingTower:SingleSpeed \"COOLING TOWER SINGLE SPEED 1\" Cooling tower water outlet temperature is below the specified minimum condenser loop temp error continues...",
    "   *************  **   ~~~   **   This error occurred 2602 total times;",
    "   *************  **   ~~~   **   during Warmup 0 times;",
    "   *************  **   ~~~   **   during Sizing 0 times.",
    "   *************  **   ~~~   **   Max=-2.809147E-004  Min=-4.898253",
    "   *************",
    "   *************  ** Warning ** GetDensityGlycol: Temperature out of range (too low) for fluid [WATER] density **",
    "   *************  **   ~~~   **   This error occurred 1786 total times;",
    "   *************  **   ~~~   **   during Warmup 0 times;",
    "   *************  **   ~~~   **   during Sizing 0 times.",
    "   *************  **   ~~~   **   Max=-2.132754E-003 {C}  Min=-4.898253 {C}",
    "   *************",
    "   *************  ** Warning ** Refrigeration:System: REFRIGERATION SYSTEM 1:heat reclaimed(defrost,other purposes) >current condenser load. ",
    "   *************  **   ~~~   **   This error occurred 306 total times;",
    "   *************  **   ~~~   **   during Warmup 0 times;",
    "   *************  **   ~~~   **   during Sizing 0 times.",
    "   *************  **   ~~~   ** For heat recovered for defrost: ASHRAE rule of thumb: <= 25% of the load on a rack ",
    "   *************  **   ~~~   ** should be in defrost at the same time. Consider diversifying defrost schedules.",
    "   *************  **   ~~~   ** For heat recovered for other purposes: this warning may be an artifact of refrigeration calculation at the load",
    "   *************  **   ~~~   ** time step and heat recovery at the system time step. In that case, and ONLY if it occurs a large number of times",
    "   *************  **   ~~~   ** (relative to the number of time steps in the simulation), there may be a mis-match between the",
    "   *************  **   ~~~   ** operating schedules of the refrigeration system and the heat recovery load.",
    "   *************",
    "   *************",
    "   ************* ===== Final Error Summary =====",
    "   ************* The following error categories occurred.  Consider correcting or noting.",
    "   ************* Nominally Unused Constructions",
    "   ************* ..The nominally unused constructions warning is provided to alert you to potential conditions that can cause",
    "   ************* ..extra time during simulation. Each construction is calculated by the algorithm indicated in the HeatBalanceAlgorithm",
    "   ************* ..object. You may remove the constructions indicated (when you use the DisplayExtraWarnings option).",
    "   *************",
    "   ************* EnergyPlus Warmup Error Summary. During Warmup: 0 Warning; 0 Severe Errors.",
    "   ************* EnergyPlus Sizing Error Summary. During Sizing: 86 Warning; 0 Severe Errors.",
    "   ************* EnergyPlus Completed Successfully-- 812080 Warning; 0 Severe Errors; "
  ],
  "seed_file": "in.osm",
  "steps": [
    {
      "arguments": {
      },
      "measure_dir_name": "openstudio_results",
      "result": {
        "measure_class_name": "OpenStudioResults",
        "measure_display_name": "OpenStudio Results",
        "measure_name": "openstudio_results",
        "measure_taxonomy": "Reporting.QAQC",
        "measure_type": "ReportingMeasure",
        "measure_uid": "a25386cd-60e4-46bc-8b11-c755f379d916",
        "measure_version_id": "02ad7007-fe7b-4747-bd7a-29d697c4d91a",
        "measure_version_modified": "20180711T183039Z",
        "measure_xml_checksum": "557BF06F",
        "stderr": "",
        "stdout": "",
        "step_errors": [

        ],
        "step_final_condition": "Generated report with 21 sections to ./report.html.",
        "step_info": [

        ],
        "step_initial_condition": "Gathering data from EnergyPlus SQL file and OSM model.",
        "step_result": "Success",
        "step_values": [
          {
            "name": "building_summary_section",
            "value": true
          },
          {
            "name": "annual_overview_section",
            "value": true
          },
          {
            "name": "monthly_overview_section",
            "value": true
          },
          {
            "name": "utility_bills_rates_section",
            "value": true
          },
          {
            "name": "envelope_section_section",
            "value": true
          },
          {
            "name": "space_type_breakdown_section",
            "value": true
          },
          {
            "name": "space_type_details_section",
            "value": true
          },
          {
            "name": "interior_lighting_section",
            "value": true
          },
          {
            "name": "plug_loads_section",
            "value": true
          },
          {
            "name": "exterior_light_section",
            "value": true
          },
          {
            "name": "water_use_section",
            "value": true
          },
          {
            "name": "hvac_load_profile",
            "value": true
          },
          {
            "name": "zone_condition_section",
            "value": true
          },
          {
            "name": "zone_summary_section",
            "value": true
          },
          {
            "name": "zone_equipment_detail_section",
            "value": true
          },
          {
            "name": "air_loops_detail_section",
            "value": true
          },
          {
            "name": "plant_loops_detail_section",
            "value": true
          },
          {
            "name": "outdoor_air_section",
            "value": true
          },
          {
            "name": "cost_summary_section",
            "value": true
          },
          {
            "name": "source_energy_section",
            "value": true
          },
          {
            "name": "schedules_overview_section",
            "value": true
          },
          {
            "name": "standards_gem_version",
            "value": "0.2.1"
          },
          {
            "name": "workflow_gem_version",
            "value": "1.3.2"
          },
          {
            "display_name": "Building 1",
            "name": "building_name",
            "value": "n/a"
          },
          {
            "name": "total_site_energy",
            "units": "kBtu",
            "value": 9416364.05
          },
          {
            "name": "net_site_energy",
            "units": "kBtu",
            "value": 9416364.05
          },
          {
            "name": "total_building_area",
            "units": "ft^2",
            "value": 107639.1
          },
          {
            "name": "total_site_eui",
            "units": "kBtu/ft^2",
            "value": 87.48
          },
          {
            "name": "eui",
            "units": "kBtu/ft^2",
            "value": 87.48
          },
          {
            "name": "unmet_hours_during_heating",
            "units": "hr",
            "value": 44.75
          },
          {
            "name": "unmet_hours_during_cooling",
            "units": "hr",
            "value": 0
          },
          {
            "name": "unmet_hours_during_occupied_heating",
            "units": "hr",
            "value": 5.5
          },
          {
            "name": "unmet_hours_during_occupied_cooling",
            "units": "hr",
            "value": 0
          },
          {
            "name": "unmet_hours_tolerance_heating",
            "units": "F",
            "value": 0.36
          },
          {
            "name": "unmet_hours_tolerance_cooling",
            "units": "F",
            "value": 0.36
          },
          {
            "name": "end_use_heating",
            "units": "kBtu",
            "value": 4372744.81
          },
          {
            "name": "end_use_cooling",
            "units": "kBtu",
            "value": 489594.93
          },
          {
            "name": "end_use_interior_lighting",
            "units": "kBtu",
            "value": 1044617.68
          },
          {
            "name": "end_use_exterior_lighting",
            "units": "kBtu",
            "value": 0
          },
          {
            "name": "end_use_interior_equipment",
            "units": "kBtu",
            "value": 1044617.68
          },
          {
            "name": "end_use_exterior_equipment",
            "units": "kBtu",
            "value": 0
          },
          {
            "name": "end_use_fans",
            "units": "kBtu",
            "value": 56423.55
          },
          {
            "name": "end_use_pumps",
            "units": "kBtu",
            "value": 340408.52
          },
          {
            "name": "end_use_heat_rejection",
            "units": "kBtu",
            "value": 156228.7
          },
          {
            "name": "end_use_humidification",
            "units": "kBtu",
            "value": 0
          },
          {
            "name": "end_use_heat_recovery",
            "units": "kBtu",
            "value": 0
          },
          {
            "name": "end_use_water_systems",
            "units": "kBtu",
            "value": 11241.11
          },
          {
            "name": "end_use_refrigeration",
            "units": "kBtu",
            "value": 1900487.06
          },
          {
            "name": "end_use_generators",
            "units": "kBtu",
            "value": 0
          },
          {
            "name": "fuel_electricity",
            "units": "kBtu",
            "value": 5032378.13
          },
          {
            "name": "fuel_natural_gas",
            "units": "kBtu",
            "value": 4383985.92
          },
          {
            "name": "fuel_additional_fuel",
            "units": "kBtu",
            "value": 0
          },
          {
            "name": "fuel_district_cooling",
            "units": "kBtu",
            "value": 0
          },
          {
            "name": "fuel_district_heating",
            "units": "kBtu",
            "value": 0
          },
          {
            "name": "end_use_electricity_heating",
            "units": "kWh",
            "value": 0
          },
          {
            "name": "end_use_electricity_cooling",
            "units": "kWh",
            "value": 143486.11
          },
          {
            "name": "end_use_electricity_interior_lighting",
            "units": "kWh",
            "value": 306147.22
          },
          {
            "name": "end_use_electricity_exterior_lighting",
            "units": "kWh",
            "value": 0
          },
          {
            "name": "end_use_electricity_interior_equipment",
            "units": "kWh",
            "value": 306147.22
          },
          {
            "name": "end_use_electricity_exterior_equipment",
            "units": "kWh",
            "value": 0
          },
          {
            "name": "end_use_electricity_fans",
            "units": "kWh",
            "value": 16536.11
          },
          {
            "name": "end_use_electricity_pumps",
            "units": "kWh",
            "value": 99763.89
          },
          {
            "name": "end_use_electricity_heat_rejection",
            "units": "kWh",
            "value": 45786.11
          },
          {
            "name": "end_use_electricity_humidification",
            "units": "kWh",
            "value": 0
          },
          {
            "name": "end_use_electricity_heat_recovery",
            "units": "kWh",
            "value": 0
          },
          {
            "name": "end_use_electricity_water_systems",
            "units": "kWh",
            "value": 0
          },
          {
            "name": "end_use_electricity_refrigeration",
            "units": "kWh",
            "value": 556977.78
          },
          {
            "name": "end_use_electricity_generators",
            "units": "kWh",
            "value": 0
          },
          {
            "name": "end_use_natural_gas_heating",
            "units": "therms",
            "value": 43735.89
          },
          {
            "name": "end_use_natural_gas_cooling",
            "units": "therms",
            "value": 0
          },
          {
            "name": "end_use_natural_gas_interior_lighting",
            "units": "therms",
            "value": 0
          },
          {
            "name": "end_use_natural_gas_exterior_lighting",
            "units": "therms",
            "value": 0
          },
          {
            "name": "end_use_natural_gas_interior_equipment",
            "units": "therms",
            "value": 0
          },
          {
            "name": "end_use_natural_gas_exterior_equipment",
            "units": "therms",
            "value": 0
          },
          {
            "name": "end_use_natural_gas_fans",
            "units": "therms",
            "value": 0
          },
          {
            "name": "end_use_natural_gas_pumps",
            "units": "therms",
            "value": 0
          },
          {
            "name": "end_use_natural_gas_heat_rejection",
            "units": "therms",
            "value": 0
          },
          {
            "name": "end_use_natural_gas_humidification",
            "units": "therms",
            "value": 0
          },
          {
            "name": "end_use_natural_gas_heat_recovery",
            "units": "therms",
            "value": 0
          },
          {
            "name": "end_use_natural_gas_water_systems",
            "units": "therms",
            "value": 112.43
          },
          {
            "name": "end_use_natural_gas_refrigeration",
            "units": "therms",
            "value": 0
          },
          {
            "name": "end_use_natural_gas_generators",
            "units": "therms",
            "value": 0
          },
          {
            "name": "electricity_heating_ip",
            "units": "kWh",
            "value": 0
          },
          {
            "name": "electricity_cooling_ip",
            "units": "kWh",
            "value": 143485.63
          },
          {
            "name": "electricity_interior_lighting_ip",
            "units": "kWh",
            "value": 306147.14
          },
          {
            "name": "electricity_exterior_lighting_ip",
            "units": "kWh",
            "value": 0
          },
          {
            "name": "electricity_interior_equipment_ip",
            "units": "kWh",
            "value": 306147.14
          },
          {
            "name": "electricity_exterior_equipment_ip",
            "units": "kWh",
            "value": 0
          },
          {
            "name": "electricity_fans_ip",
            "units": "kWh",
            "value": 16537.33
          },
          {
            "name": "electricity_pumps_ip",
            "units": "kWh",
            "value": 99763.14
          },
          {
            "name": "electricity_heat_rejection_ip",
            "units": "kWh",
            "value": 45785.49
          },
          {
            "name": "electricity_humidification_ip",
            "units": "kWh",
            "value": 0
          },
          {
            "name": "electricity_heat_recovery_ip",
            "units": "kWh",
            "value": 0
          },
          {
            "name": "electricity_water_systems_ip",
            "units": "kWh",
            "value": 0
          },
          {
            "name": "electricity_refrigeration_ip",
            "units": "kWh",
            "value": 556978.06
          },
          {
            "name": "electricity_generators_ip",
            "units": "kWh",
            "value": 0
          },
          {
            "name": "electricity_ip",
            "units": "kWh",
            "value": 1474843.92
          },
          {
            "name": "natural_gas_heating_ip",
            "units": "MBtu",
            "value": 4372.74
          },
          {
            "name": "natural_gas_cooling_ip",
            "units": "MBtu",
            "value": 0
          },
          {
            "name": "natural_gas_interior_lighting_ip",
            "units": "MBtu",
            "value": 0
          },
          {
            "name": "natural_gas_exterior_lighting_ip",
            "units": "MBtu",
            "value": 0
          },
          {
            "name": "natural_gas_interior_equipment_ip",
            "units": "MBtu",
            "value": 0
          },
          {
            "name": "natural_gas_exterior_equipment_ip",
            "units": "MBtu",
            "value": 0
          },
          {
            "name": "natural_gas_fans_ip",
            "units": "MBtu",
            "value": 0
          },
          {
            "name": "natural_gas_pumps_ip",
            "units": "MBtu",
            "value": 0
          },
          {
            "name": "natural_gas_heat_rejection_ip",
            "units": "MBtu",
            "value": 0
          },
          {
            "name": "natural_gas_humidification_ip",
            "units": "MBtu",
            "value": 0
          },
          {
            "name": "natural_gas_heat_recovery_ip",
            "units": "MBtu",
            "value": 0
          },
          {
            "name": "natural_gas_water_systems_ip",
            "units": "MBtu",
            "value": 11.24
          },
          {
            "name": "natural_gas_refrigeration_ip",
            "units": "MBtu",
            "value": 0
          },
          {
            "name": "natural_gas_generators_ip",
            "units": "MBtu",
            "value": 0
          },
          {
            "name": "natural_gas_ip",
            "units": "MBtu",
            "value": 4383.99
          },
          {
            "name": "additional_fuel_heating_ip",
            "units": "MBtu",
            "value": 0
          },
          {
            "name": "additional_fuel_cooling_ip",
            "units": "MBtu",
            "value": 0
          },
          {
            "name": "additional_fuel_interior_lighting_ip",
            "units": "MBtu",
            "value": 0
          },
          {
            "name": "additional_fuel_exterior_lighting_ip",
            "units": "MBtu",
            "value": 0
          },
          {
            "name": "additional_fuel_interior_equipment_ip",
            "units": "MBtu",
            "value": 0
          },
          {
            "name": "additional_fuel_exterior_equipment_ip",
            "units": "MBtu",
            "value": 0
          },
          {
            "name": "additional_fuel_fans_ip",
            "units": "MBtu",
            "value": 0
          },
          {
            "name": "additional_fuel_pumps_ip",
            "units": "MBtu",
            "value": 0
          },
          {
            "name": "additional_fuel_heat_rejection_ip",
            "units": "MBtu",
            "value": 0
          },
          {
            "name": "additional_fuel_humidification_ip",
            "units": "MBtu",
            "value": 0
          },
          {
            "name": "additional_fuel_heat_recovery_ip",
            "units": "MBtu",
            "value": 0
          },
          {
            "name": "additional_fuel_water_systems_ip",
            "units": "MBtu",
            "value": 0
          },
          {
            "name": "additional_fuel_refrigeration_ip",
            "units": "MBtu",
            "value": 0
          },
          {
            "name": "additional_fuel_generators_ip",
            "units": "MBtu",
            "value": 0
          },
          {
            "name": "additional_fuel_ip",
            "units": "MBtu",
            "value": 0
          },
          {
            "name": "district_cooling_heating_ip",
            "units": "MBtu",
            "value": 0
          },
          {
            "name": "district_cooling_cooling_ip",
            "units": "MBtu",
            "value": 0
          },
          {
            "name": "district_cooling_interior_lighting_ip",
            "units": "MBtu",
            "value": 0
          },
          {
            "name": "district_cooling_exterior_lighting_ip",
            "units": "MBtu",
            "value": 0
          },
          {
            "name": "district_cooling_interior_equipment_ip",
            "units": "MBtu",
            "value": 0
          },
          {
            "name": "district_cooling_exterior_equipment_ip",
            "units": "MBtu",
            "value": 0
          },
          {
            "name": "district_cooling_fans_ip",
            "units": "MBtu",
            "value": 0
          },
          {
            "name": "district_cooling_pumps_ip",
            "units": "MBtu",
            "value": 0
          },
          {
            "name": "district_cooling_heat_rejection_ip",
            "units": "MBtu",
            "value": 0
          },
          {
            "name": "district_cooling_humidification_ip",
            "units": "MBtu",
            "value": 0
          },
          {
            "name": "district_cooling_heat_recovery_ip",
            "units": "MBtu",
            "value": 0
          },
          {
            "name": "district_cooling_water_systems_ip",
            "units": "MBtu",
            "value": 0
          },
          {
            "name": "district_cooling_refrigeration_ip",
            "units": "MBtu",
            "value": 0
          },
          {
            "name": "district_cooling_generators_ip",
            "units": "MBtu",
            "value": 0
          },
          {
            "name": "district_cooling_ip",
            "units": "MBtu",
            "value": 0
          },
          {
            "name": "district_heating_heating_ip",
            "units": "MBtu",
            "value": 0
          },
          {
            "name": "district_heating_cooling_ip",
            "units": "MBtu",
            "value": 0
          },
          {
            "name": "district_heating_interior_lighting_ip",
            "units": "MBtu",
            "value": 0
          },
          {
            "name": "district_heating_exterior_lighting_ip",
            "units": "MBtu",
            "value": 0
          },
          {
            "name": "district_heating_interior_equipment_ip",
            "units": "MBtu",
            "value": 0
          },
          {
            "name": "district_heating_exterior_equipment_ip",
            "units": "MBtu",
            "value": 0
          },
          {
            "name": "district_heating_fans_ip",
            "units": "MBtu",
            "value": 0
          },
          {
            "name": "district_heating_pumps_ip",
            "units": "MBtu",
            "value": 0
          },
          {
            "name": "district_heating_heat_rejection_ip",
            "units": "MBtu",
            "value": 0
          },
          {
            "name": "district_heating_humidification_ip",
            "units": "MBtu",
            "value": 0
          },
          {
            "name": "district_heating_heat_recovery_ip",
            "units": "MBtu",
            "value": 0
          },
          {
            "name": "district_heating_water_systems_ip",
            "units": "MBtu",
            "value": 0
          },
          {
            "name": "district_heating_refrigeration_ip",
            "units": "MBtu",
            "value": 0
          },
          {
            "name": "district_heating_generators_ip",
            "units": "MBtu",
            "value": 0
          },
          {
            "name": "district_heating_ip",
            "units": "MBtu",
            "value": 0
          },
          {
            "name": "water_heating_ip",
            "units": "MBtu",
            "value": 0
          },
          {
            "name": "water_cooling_ip",
            "units": "MBtu",
            "value": 0
          },
          {
            "name": "water_interior_lighting_ip",
            "units": "MBtu",
            "value": 0
          },
          {
            "name": "water_exterior_lighting_ip",
            "units": "MBtu",
            "value": 0
          },
          {
            "name": "water_interior_equipment_ip",
            "units": "MBtu",
            "value": 0
          },
          {
            "name": "water_exterior_equipment_ip",
            "units": "MBtu",
            "value": 0
          },
          {
            "name": "water_fans_ip",
            "units": "MBtu",
            "value": 0
          },
          {
            "name": "water_pumps_ip",
            "units": "MBtu",
            "value": 0
          },
          {
            "name": "water_heat_rejection_ip",
            "units": "MBtu",
            "value": 0
          },
          {
            "name": "water_humidification_ip",
            "units": "MBtu",
            "value": 0
          },
          {
            "name": "water_heat_recovery_ip",
            "units": "MBtu",
            "value": 0
          },
          {
            "name": "water_water_systems_ip",
            "units": "MBtu",
            "value": 0
          },
          {
            "name": "water_refrigeration_ip",
            "units": "MBtu",
            "value": 0
          },
          {
            "name": "water_generators_ip",
            "units": "MBtu",
            "value": 0
          },
          {
            "name": "water_ip",
            "units": "MBtu",
            "value": 0
          },
          {
            "name": "ashrae_189_1_2009_ext_roof_iead_climate_zone_2_5",
            "units": "ft^2",
            "value": 53819.55
          },
          {
            "name": "ashrae_189_1_2009_ext_wall_steel_frame_climate_zone_4_8",
            "units": "ft^2",
            "value": 15500.03
          },
          {
            "name": "ashrae_189_1_2009_ext_window_climate_zone_4_5",
            "units": "ft^2",
            "value": 10333.35
          },
          {
            "name": "gross_window_wall_ratio",
            "units": "%",
            "value": 40
          },
          {
            "name": "gross_window_wall_ratio_conditioned",
            "units": "%",
            "value": 40
          },
          {
            "name": "skylight_roof_ratio",
            "units": "%",
            "value": 0
          },
          {
            "name": "space_type_baseline_model_space_type",
            "units": "ft^2",
            "value": 107639.1
          },
          {
            "name": "exterior_lighting_total_power",
            "units": "W",
            "value": 0
          },
          {
            "name": "exterior_lighting_total_consumption",
            "units": "kWh",
            "value": 2759663.89
          },
          {
            "name": "inflation_approach",
            "value": "Constant Dollar"
          },
          {
            "name": "analysis_length",
            "units": "yrs",
            "value": 25
          },
          {
            "name": "annual_peak_electric_demand",
            "units": "kW",
            "value": 431.22
          },
          {
            "name": "first_year_capital_cost",
            "units": "$",
            "value": 0
          },
          {
            "name": "annual_utility_cost",
            "units": "$",
            "value": 0
          },
          {
            "name": "total_lifecycle_cost",
            "units": "$",
            "value": 0
          }
        ],
        "step_warnings": [

        ]
      }
    }
  ],
  "weather_file": "../../weatherdata/USA_IL_Chicago-OHare.Intl.AP.725300_TMY3.epw"
}