{
  "completed_status": "Success",
  "current_step": 1,
  "eplusout_err": [
    "Program Version,EnergyPlus, Version 9.3.0-baff08990c, ",
    "   ************* Beginning Zone Sizing Calculations",
    "   ** Warning ** ProcessScheduleInput: Schedule:Constant=\"ALWAYS OFF DISCRETE\", Blank Schedule Type Limits Name input -- will not be validated.",
    "   ** Warning ** ProcessScheduleInput: Schedule:Constant=\"ALWAYS ON CONTINUOUS\", Blank Schedule Type Limits Name input -- will not be validated.",
    "   ** Warning ** GetHTSurfaceData: Surfaces with interface to Ground found but no \"Ground Temperatures\" were input.",
    "   **   ~~~   ** Found first in surface=SURFACE 71",
    "   **   ~~~   ** Defaults, constant throughout the year of (18.0) will be used.",
    "   ** Warning ** CheckUsedConstructions: There are 5 nominally unused constructions in input.",
    "   **   ~~~   ** For explicit details on each unused construction, use Output:Diagnostics,DisplayExtraWarnings;",
    "   ** Warning ** GetInternalHeatGains: People=\"ASHRAE_189.1-2009_CLIMATEZONE 1-3_MID-RISEAPARTMENT_APARTMENT_PEOPINST\", Activity Level Schedule Name values",
    "   **   ~~~   ** fall outside typical range [70,1000] W/person for Thermal Comfort Reporting.",
    "   **   ~~~   ** Odd comfort values may result; Schedule=\"MID-RISEAPARTMENT_ACTIVITY\".",
    "   **   ~~~   ** Entered min/max range=[0.0,120.0] W/person.",
    "   ** Warning ** GetInternalHeatGains: People=\"ASHRAE_189.1-2009_CLIMATEZONE 4-8_MID-RISEAPARTMENT_APARTMENT_PEOPINST\", Activity Level Schedule Name values",
    "   **   ~~~   ** fall outside typical range [70,1000] W/person for Thermal Comfort Reporting.",
    "   **   ~~~   ** Odd comfort values may result; Schedule=\"MID-RISEAPARTMENT_ACTIVITY\".",
    "   **   ~~~   ** Entered min/max range=[0.0,120.0] W/person.",
    "   ** Warning ** GetInternalHeatGains: People=\"ASHRAE_189.1-2009_CLIMATEZONE 4-8_MID-RISEAPARTMENT_CORRIDOR_PEOPINST\", Activity Level Schedule Name values",
    "   **   ~~~   ** fall outside typical range [70,1000] W/person for Thermal Comfort Reporting.",
    "   **   ~~~   ** Odd comfort values may result; Schedule=\"MID-RISEAPARTMENT_ACTIVITY\".",
    "   **   ~~~   ** Entered min/max range=[0.0,120.0] W/person.",
    "   ** Warning ** GetInternalHeatGains: People=\"ASHRAE_189.1-2009_CLIMATEZONE 4-8_MID-RISEAPARTMENT_OFFICE_PEOPINST\", Activity Level Schedule Name values",
    "   **   ~~~   ** fall outside typical range [70,1000] W/person for Thermal Comfort Reporting.",
    "   **   ~~~   ** Odd comfort values may result; Schedule=\"MID-RISEAPARTMENT_ACTIVITY\".",
    "   **   ~~~   ** Entered min/max range=[0.0,120.0] W/person.",
    "   ** Warning ** GetElectricEIRChillerInput: Chiller:Electric:EIR=\"CHILLER ELECTRIC EIR 1\"",
    "   **   ~~~   ** Energy input ratio as a function of temperature curve output is not equal to 1.0 (+ or - 10%) at reference conditions.",
    "   **   ~~~   ** Curve output at reference conditions = 0.861",
    "   ** Warning ** GetElectricEIRChillerInput: Chiller:Electric:EIR=\"CHILLER ELECTRIC EIR 2\"",
    "   **   ~~~   ** Energy input ratio as a function of temperature curve output is not equal to 1.0 (+ or - 10%) at reference conditions.",
    "   **   ~~~   ** Curve output at reference conditions = 0.861",
    "   ** Warning ** GetElectricEIRChillerInput: Chiller:Electric:EIR=\"CHILLER ELECTRIC EIR 3\"",
    "   **   ~~~   ** Energy input ratio as a function of temperature curve output is not equal to 1.0 (+ or - 10%) at reference conditions.",
    "   **   ~~~   ** Curve output at reference conditions = 0.861",
    "   ************* Beginning System Sizing Calculations",
    "   ** Warning ** Since Zone Minimum Air Flow Input Method = CONSTANT, input for Fixed Minimum Air Flow Rate will be ignored.",
    "   **   ~~~   ** Occurs in AirTerminal:SingleDuct:VAV:Reheat = AIR TERMINAL SINGLE DUCT VAV REHEAT 39",
    "   ** Warning ** Since Zone Minimum Air Flow Input Method = CONSTANT, input for Fixed Minimum Air Flow Rate will be ignored.",
    "   **   ~~~   ** Occurs in AirTerminal:SingleDuct:VAV:Reheat = AIR TERMINAL SINGLE DUCT VAV REHEAT 38",
    "   ** Warning ** Since Zone Minimum Air Flow Input Method = CONSTANT, input for Fixed Minimum Air Flow Rate will be ignored.",
    "   **   ~~~   ** Occurs in AirTerminal:SingleDuct:VAV:Reheat = AIR TERMINAL SINGLE DUCT VAV REHEAT 24",
    "   ** Warning ** Since Zone Minimum Air Flow Input Method = CONSTANT, input for Fixed Minimum Air Flow Rate will be ignored.",
    "   **   ~~~   ** Occurs in AirTerminal:SingleDuct:VAV:Reheat = AIR TERMINAL SINGLE DUCT VAV REHEAT 36",
    "   ** Warning ** Since Zone Minimum Air Flow Input Method = CONSTANT, input for Fixed Minimum Air Flow Rate will be ignored.",
    "   **   ~~~   ** Occurs in AirTerminal:SingleDuct:VAV:Reheat = AIR TERMINAL SINGLE DUCT VAV REHEAT 31",
    "   ** Warning ** Since Zone Minimum Air Flow Input Method = CONSTANT, input for Fixed Minimum Air Flow Rate will be ignored.",
    "   **   ~~~   ** Occurs in AirTerminal:SingleDuct:VAV:Reheat = AIR TERMINAL SINGLE DUCT VAV REHEAT 30",
    "   ** Warning ** Since Zone Minimum Air Flow Input Method = CONSTANT, input for Fixed Minimum Air Flow Rate will be ignored.",
    "   **   ~~~   ** Occurs in AirTerminal:SingleDuct:VAV:Reheat = AIR TERMINAL SINGLE DUCT VAV REHEAT 37",
    "   ** Warning ** Since Zone Minimum Air Flow Input Method = CONSTANT, input for Fixed Minimum Air Flow Rate will be ignored.",
    "   **   ~~~   ** Occurs in AirTerminal:SingleDuct:VAV:Reheat = AIR TERMINAL SINGLE DUCT VAV REHEAT 27",
    "   ** Warning ** Since Zone Minimum Air Flow Input Method = CONSTANT, input for Fixed Minimum Air Flow Rate will be ignored.",
    "   **   ~~~   ** Occurs in AirTerminal:SingleDuct:VAV:Reheat = AIR TERMINAL SINGLE DUCT VAV REHEAT 25",
    "   ** Warning ** Since Zone Minimum Air Flow Input Method = CONSTANT, input for Fixed Minimum Air Flow Rate will be ignored.",
    "   **   ~~~   ** Occurs in AirTerminal:SingleDuct:VAV:Reheat = AIR TERMINAL SINGLE DUCT VAV REHEAT 28",
    "   ** Warning ** Since Zone Minimum Air Flow Input Method = CONSTANT, input for Fixed Minimum Air Flow Rate will be ignored.",
    "   **   ~~~   ** Occurs in AirTerminal:SingleDuct:VAV:Reheat = AIR TERMINAL SINGLE DUCT VAV REHEAT 32",
    "   ** Warning ** Since Zone Minimum Air Flow Input Method = CONSTANT, input for Fixed Minimum Air Flow Rate will be ignored.",
    "   **   ~~~   ** Occurs in AirTerminal:SingleDuct:VAV:Reheat = AIR TERMINAL SINGLE DUCT VAV REHEAT 26",
    "   ** Warning ** Since Zone Minimum Air Flow Input Method = CONSTANT, input for Fixed Minimum Air Flow Rate will be ignored.",
    "   **   ~~~   ** Occurs in AirTerminal:SingleDuct:VAV:Reheat = AIR TERMINAL SINGLE DUCT VAV REHEAT 34",
    "   ** Warning ** Since Zone Minimum Air Flow Input Method = CONSTANT, input for Fixed Minimum Air Flow Rate will be ignored.",
    "   **   ~~~   ** Occurs in AirTerminal:SingleDuct:VAV:Reheat = AIR TERMINAL SINGLE DUCT VAV REHEAT 33",
    "   ** Warning ** Since Zone Minimum Air Flow Input Method = CONSTANT, input for Fixed Minimum Air Flow Rate will be ignored.",
    "   **   ~~~   ** Occurs in AirTerminal:SingleDuct:VAV:Reheat = AIR TERMINAL SINGLE DUCT VAV REHEAT 42",
    "   ** Warning ** Since Zone Minimum Air Flow Input Method = CONSTANT, input for Fixed Minimum Air Flow Rate will be ignored.",
    "   **   ~~~   ** Occurs in AirTerminal:SingleDuct:VAV:Reheat = AIR TERMINAL SINGLE DUCT VAV REHEAT 54",
    "   ** Warning ** Since Zone Minimum Air Flow Input Method = CONSTANT, input for Fixed Minimum Air Flow Rate will be ignored.",
    "   **   ~~~   ** Occurs in AirTerminal:SingleDuct:VAV:Reheat = AIR TERMINAL SINGLE DUCT VAV REHEAT 47",
    "   ** Warning ** Since Zone Minimum Air Flow Input Method = CONSTANT, input for Fixed Minimum Air Flow Rate will be ignored.",
    "   **   ~~~   ** Occurs in AirTerminal:SingleDuct:VAV:Reheat = AIR TERMINAL SINGLE DUCT VAV REHEAT 53",
    "   ** Warning ** Since Zone Minimum Air Flow Input Method = CONSTANT, input for Fixed Minimum Air Flow Rate will be ignored.",
    "   **   ~~~   ** Occurs in AirTerminal:SingleDuct:VAV:Reheat = AIR TERMINAL SINGLE DUCT VAV REHEAT 49",
    "   ** Warning ** Since Zone Minimum Air Flow Input Method = CONSTANT, input for Fixed Minimum Air Flow Rate will be ignored.",
    "   **   ~~~   ** Occurs in AirTerminal:SingleDuct:VAV:Reheat = AIR TERMINAL SINGLE DUCT VAV REHEAT 45",
    "   ** Warning ** Since Zone Minimum Air Flow Input Method = CONSTANT, input for Fixed Minimum Air Flow Rate will be ignored.",
    "   **   ~~~   ** Occurs in AirTerminal:SingleDuct:VAV:Reheat = AIR TERMINAL SINGLE DUCT VAV REHEAT 57",
    "   ** Warning ** Since Zone Minimum Air Flow Input Method = CONSTANT, input for Fixed Minimum Air Flow Rate will be ignored.",
    "   **   ~~~   ** Occurs in AirTerminal:SingleDuct:VAV:Reheat = AIR TERMINAL SINGLE DUCT VAV REHEAT 56",
    "   ** Warning ** Since Zone Minimum Air Flow Input Method = CONSTANT, input for Fixed Minimum Air Flow Rate will be ignored.",
    "   **   ~~~   ** Occurs in AirTerminal:SingleDuct:VAV:Reheat = AIR TERMINAL SINGLE DUCT VAV REHEAT 44",
    "   ** Warning ** Since Zone Minimum Air Flow Input Method = CONSTANT, input for Fixed Minimum Air Flow Rate will be ignored.",
    "   **   ~~~   ** Occurs in AirTerminal:SingleDuct:VAV:Reheat = AIR TERMINAL SINGLE DUCT VAV REHEAT 46",
    "   ** Warning ** Since Zone Minimum Air Flow Input Method = CONSTANT, input for Fixed Minimum Air Flow Rate will be ignored.",
    "   **   ~~~   ** Occurs in AirTerminal:SingleDuct:VAV:Reheat = AIR TERMINAL SINGLE DUCT VAV REHEAT 58",
    "   ** Warning ** Since Zone Minimum Air Flow Input Method = CONSTANT, input for Fixed Minimum Air Flow Rate will be ignored.",
    "   **   ~~~   ** Occurs in AirTerminal:SingleDuct:VAV:Reheat = AIR TERMINAL SINGLE DUCT VAV REHEAT 48",
    "   ** Warning ** Since Zone Minimum Air Flow Input Method = CONSTANT, input for Fixed Minimum Air Flow Rate will be ignored.",
    "   **   ~~~   ** Occurs in AirTerminal:SingleDuct:VAV:Reheat = AIR TERMINAL SINGLE DUCT VAV REHEAT 43",
    "   ** Warning ** Since Zone Minimum Air Flow Input Method = CONSTANT, input for Fixed Minimum Air Flow Rate will be ignored.",
    "   **   ~~~   ** Occurs in AirTerminal:SingleDuct:VAV:Reheat = AIR TERMINAL SINGLE DUCT VAV REHEAT 52",
    "   ** Warning ** Since Zone Minimum Air Flow Input Method = CONSTANT, input for Fixed Minimum Air Flow Rate will be ignored.",
    "   **   ~~~   ** Occurs in AirTerminal:SingleDuct:VAV:Reheat = AIR TERMINAL SINGLE DUCT VAV REHEAT 50",
    "   ** Warning ** Since Zone Minimum Air Flow Input Method = CONSTANT, input for Fixed Minimum Air Flow Rate will be ignored.",
    "   **   ~~~   ** Occurs in AirTerminal:SingleDuct:VAV:Reheat = AIR TERMINAL SINGLE DUCT VAV REHEAT 5",
    "   ** Warning ** Since Zone Minimum Air Flow Input Method = CONSTANT, input for Fixed Minimum Air Flow Rate will be ignored.",
    "   **   ~~~   ** Occurs in AirTerminal:SingleDuct:VAV:Reheat = AIR TERMINAL SINGLE DUCT VAV REHEAT 18",
    "   ** Warning ** Since Zone Minimum Air Flow Input Method = CONSTANT, input for Fixed Minimum Air Flow Rate will be ignored.",
    "   **   ~~~   ** Occurs in AirTerminal:SingleDuct:VAV:Reheat = AIR TERMINAL SINGLE DUCT VAV REHEAT 19",
    "   ** Warning ** Since Zone Minimum Air Flow Input Method = CONSTANT, input for Fixed Minimum Air Flow Rate will be ignored.",
    "   **   ~~~   ** Occurs in AirTerminal:SingleDuct:VAV:Reheat = AIR TERMINAL SINGLE DUCT VAV REHEAT 8",
    "   ** Warning ** Since Zone Minimum Air Flow Input Method = CONSTANT, input for Fixed Minimum Air Flow Rate will be ignored.",
    "   **   ~~~   ** Occurs in AirTerminal:SingleDuct:VAV:Reheat = AIR TERMINAL SINGLE DUCT VAV REHEAT 13",
    "   ** Warning ** Since Zone Minimum Air Flow Input Method = CONSTANT, input for Fixed Minimum Air Flow Rate will be ignored.",
    "   **   ~~~   ** Occurs in AirTerminal:SingleDuct:VAV:Reheat = AIR TERMINAL SINGLE DUCT VAV REHEAT 3",
    "   ** Warning ** Since Zone Minimum Air Flow Input Method = CONSTANT, input for Fixed Minimum Air Flow Rate will be ignored.",
    "   **   ~~~   ** Occurs in AirTerminal:SingleDuct:VAV:Reheat = AIR TERMINAL SINGLE DUCT VAV REHEAT 11",
    "   ** Warning ** Since Zone Minimum Air Flow Input Method = CONSTANT, input for Fixed Minimum Air Flow Rate will be ignored.",
    "   **   ~~~   ** Occurs in AirTerminal:SingleDuct:VAV:Reheat = AIR TERMINAL SINGLE DUCT VAV REHEAT 20",
    "   ** Warning ** Since Zone Minimum Air Flow Input Method = CONSTANT, input for Fixed Minimum Air Flow Rate will be ignored.",
    "   **   ~~~   ** Occurs in AirTerminal:SingleDuct:VAV:Reheat = AIR TERMINAL SINGLE DUCT VAV REHEAT 16",
    "   ** Warning ** Since Zone Minimum Air Flow Input Method = CONSTANT, input for Fixed Minimum Air Flow Rate will be ignored.",
    "   **   ~~~   ** Occurs in AirTerminal:SingleDuct:VAV:Reheat = AIR TERMINAL SINGLE DUCT VAV REHEAT 9",
    "   ** Warning ** Since Zone Minimum Air Flow Input Method = CONSTANT, input for Fixed Minimum Air Flow Rate will be ignored.",
    "   **   ~~~   ** Occurs in AirTerminal:SingleDuct:VAV:Reheat = AIR TERMINAL SINGLE DUCT VAV REHEAT 7",
    "   ** Warning ** Since Zone Minimum Air Flow Input Method = CONSTANT, input for Fixed Minimum Air Flow Rate will be ignored.",
    "   **   ~~~   ** Occurs in AirTerminal:SingleDuct:VAV:Reheat = AIR TERMINAL SINGLE DUCT VAV REHEAT 15",
    "   ** Warning ** Since Zone Minimum Air Flow Input Method = CONSTANT, input for Fixed Minimum Air Flow Rate will be ignored.",
    "   **   ~~~   ** Occurs in AirTerminal:SingleDuct:VAV:Reheat = AIR TERMINAL SINGLE DUCT VAV REHEAT 12",
    "   ** Warning ** Since Zone Minimum Air Flow Input Method = CONSTANT, input for Fixed Minimum Air Flow Rate will be ignored.",
    "   **   ~~~   ** Occurs in AirTerminal:SingleDuct:VAV:Reheat = AIR TERMINAL SINGLE DUCT VAV REHEAT 17",
    "   ** Warning ** Since Zone Minimum Air Flow Input Method = CONSTANT, input for Fixed Minimum Air Flow Rate will be ignored.",
    "   **   ~~~   ** Occurs in AirTerminal:SingleDuct:VAV:Reheat = AIR TERMINAL SINGLE DUCT VAV REHEAT 10",
    "   ** Warning ** Since Zone Minimum Air Flow Input Method = CONSTANT, input for Fixed Minimum Air Flow Rate will be ignored.",
    "   **   ~~~   ** Occurs in AirTerminal:SingleDuct:VAV:Reheat = AIR TERMINAL SINGLE DUCT VAV REHEAT 29",
    "   ** Warning ** Since Zone Minimum Air Flow Input Method = CONSTANT, input for Fixed Minimum Air Flow Rate will be ignored.",
    "   **   ~~~   ** Occurs in AirTerminal:SingleDuct:VAV:Reheat = AIR TERMINAL SINGLE DUCT VAV REHEAT 21",
    "   ** Warning ** Since Zone Minimum Air Flow Input Method = CONSTANT, input for Fixed Minimum Air Flow Rate will be ignored.",
    "   **   ~~~   ** Occurs in AirTerminal:SingleDuct:VAV:Reheat = AIR TERMINAL SINGLE DUCT VAV REHEAT 41",
    "   ** Warning ** Since Zone Minimum Air Flow Input Method = CONSTANT, input for Fixed Minimum Air Flow Rate will be ignored.",
    "   **   ~~~   ** Occurs in AirTerminal:SingleDuct:VAV:Reheat = AIR TERMINAL SINGLE DUCT VAV REHEAT 14",
    "   ** Warning ** Since Zone Minimum Air Flow Input Method = CONSTANT, input for Fixed Minimum Air Flow Rate will be ignored.",
    "   **   ~~~   ** Occurs in AirTerminal:SingleDuct:VAV:Reheat = AIR TERMINAL SINGLE DUCT VAV REHEAT 22",
    "   ** Warning ** Since Zone Minimum Air Flow Input Method = CONSTANT, input for Fixed Minimum Air Flow Rate will be ignored.",
    "   **   ~~~   ** Occurs in AirTerminal:SingleDuct:VAV:Reheat = AIR TERMINAL SINGLE DUCT VAV REHEAT 40",
    "   ** Warning ** Since Zone Minimum Air Flow Input Method = CONSTANT, input for Fixed Minimum Air Flow Rate will be ignored.",
    "   **   ~~~   ** Occurs in AirTerminal:SingleDuct:VAV:Reheat = AIR TERMINAL SINGLE DUCT VAV REHEAT 6",
    "   ** Warning ** Since Zone Minimum Air Flow Input Method = CONSTANT, input for Fixed Minimum Air Flow Rate will be ignored.",
    "   **   ~~~   ** Occurs in AirTerminal:SingleDuct:VAV:Reheat = AIR TERMINAL SINGLE DUCT VAV REHEAT 23",
    "   ** Warning ** Since Zone Minimum Air Flow Input Method = CONSTANT, input for Fixed Minimum Air Flow Rate will be ignored.",
    "   **   ~~~   ** Occurs in AirTerminal:SingleDuct:VAV:Reheat = AIR TERMINAL SINGLE DUCT VAV REHEAT 35",
    "   ** Warning ** Since Zone Minimum Air Flow Input Method = CONSTANT, input for Fixed Minimum Air Flow Rate will be ignored.",
    "   **   ~~~   ** Occurs in AirTerminal:SingleDuct:VAV:Reheat = AIR TERMINAL SINGLE DUCT VAV REHEAT 51",
    "   ** Warning ** Since Zone Minimum Air Flow Input Method = CONSTANT, input for Fixed Minimum Air Flow Rate will be ignored.",
    "   **   ~~~   ** Occurs in AirTerminal:SingleDuct:VAV:Reheat = AIR TERMINAL SINGLE DUCT VAV REHEAT 55",
    "   ** Warning ** Since Zone Minimum Air Flow Input Method = CONSTANT, input for Fixed Minimum Air Flow Rate will be ignored.",
    "   **   ~~~   ** Occurs in AirTerminal:SingleDuct:VAV:Reheat = AIR TERMINAL SINGLE DUCT VAV REHEAT 2",
    "   ** Warning ** Since Zone Minimum Air Flow Input Method = CONSTANT, input for Fixed Minimum Air Flow Rate will be ignored.",
    "   **   ~~~   ** Occurs in AirTerminal:SingleDuct:VAV:Reheat = AIR TERMINAL SINGLE DUCT VAV REHEAT 4",
    "   ************* Beginning Plant Sizing Calculations",
    "   ** Warning ** GetOAControllerInputs: Controller:MechanicalVentilation=\"CONTROLLER MECHANICAL VENTILATION 5",
    "   **   ~~~   ** Cannot locate a matching DesignSpecification:ZoneAirDistribution object for Zone=\"101\".",
    "   **   ~~~   ** Using default zone air distribution effectiveness of 1.0 for heating and cooling.",
    "   ** Warning ** GetOAControllerInputs: Controller:MechanicalVentilation=\"CONTROLLER MECHANICAL VENTILATION 5",
    "   **   ~~~   ** Cannot locate a matching DesignSpecification:ZoneAirDistribution object for Zone=\"103-102\".",
    "   **   ~~~   ** Using default zone air distribution effectiveness of 1.0 for heating and cooling.",
    "   ** Warning ** GetOAControllerInputs: Controller:MechanicalVentilation=\"CONTROLLER MECHANICAL VENTILATION 5",
    "   **   ~~~   ** Cannot locate a matching DesignSpecification:ZoneAirDistribution object for Zone=\"104\".",
    "   **   ~~~   ** Using default zone air distribution effectiveness of 1.0 for heating and cooling.",
    "   ** Warning ** GetOAControllerInputs: Controller:MechanicalVentilation=\"CONTROLLER MECHANICAL VENTILATION 5",
    "   **   ~~~   ** Cannot locate a matching DesignSpecification:ZoneAirDistribution object for Zone=\"106\".",
    "   **   ~~~   ** Using default zone air distribution effectiveness of 1.0 for heating and cooling.",
    "   ** Warning ** GetOAControllerInputs: Controller:MechanicalVentilation=\"CONTROLLER MECHANICAL VENTILATION 5",
    "   **   ~~~   ** Cannot locate a matching DesignSpecification:ZoneAirDistribution object for Zone=\"107\".",
    "   **   ~~~   ** Using default zone air distribution effectiveness of 1.0 for heating and cooling.",
    "   ** Warning ** GetOAControllerInputs: Controller:MechanicalVentilation=\"CONTROLLER MECHANICAL VENTILATION 5",
    "   **   ~~~   ** Cannot locate a matching DesignSpecification:ZoneAirDistribution object for Zone=\"108\".",
    "   **   ~~~   ** Using default zone air distribution effectiveness of 1.0 for heating and cooling.",
    "   ** Warning ** GetOAControllerInputs: Controller:MechanicalVentilation=\"CONTROLLER MECHANICAL VENTILATION 5",
    "   **   ~~~   ** Cannot locate a matching DesignSpecification:ZoneAirDistribution object for Zone=\"109\".",
    "   **   ~~~   ** Using default zone air distribution effectiveness of 1.0 for heating and cooling.",
    "   ** Warning ** GetOAControllerInputs: Controller:MechanicalVentilation=\"CONTROLLER MECHANICAL VENTILATION 5",
    "   **   ~~~   ** Cannot locate a matching DesignSpecification:ZoneAirDistribution object for Zone=\"110\".",
    "   **   ~~~   ** Using default zone air distribution effectiveness of 1.0 for heating and cooling.",
    "   ** Warning ** GetOAControllerInputs: Controller:MechanicalVentilation=\"CONTROLLER MECHANICAL VENTILATION 5",
    "   **   ~~~   ** Cannot locate a matching DesignSpecification:ZoneAirDistribution object for Zone=\"111\".",
    "   **   ~~~   ** Using default zone air distribution effectiveness of 1.0 for heating and cooling.",
    "   ** Warning ** GetOAControllerInputs: Controller:MechanicalVentilation=\"CONTROLLER MECHANICAL VENTILATION 5",
    "   **   ~~~   ** Cannot locate a matching DesignSpecification:ZoneAirDistribution object for Zone=\"112\".",
    "   **   ~~~   ** Using default zone air distribution effectiveness of 1.0 for heating and cooling.",
    "   ** Warning ** GetOAControllerInputs: Controller:MechanicalVentilation=\"CONTROLLER MECHANICAL VENTILATION 5",
    "   **   ~~~   ** Cannot locate a matching DesignSpecification:ZoneAirDistribution object for Zone=\"114\".",
    "   **   ~~~   ** Using default zone air distribution effectiveness of 1.0 for heating and cooling.",
    "   ** Warning ** GetOAControllerInputs: Controller:MechanicalVentilation=\"CONTROLLER MECHANICAL VENTILATION 5",
    "   **   ~~~   ** Cannot locate a matching DesignSpecification:ZoneAirDistribution object for Zone=\"115\".",
    "   **   ~~~   ** Using default zone air distribution effectiveness of 1.0 for heating and cooling.",
    "   ** Warning ** GetOAControllerInputs: Controller:MechanicalVentilation=\"CONTROLLER MECHANICAL VENTILATION 5",
    "   **   ~~~   ** Cannot locate a matching DesignSpecification:ZoneAirDistribution object for Zone=\"116\".",
    "   **   ~~~   ** Using default zone air distribution effectiveness of 1.0 for heating and cooling.",
    "   ** Warning ** GetOAControllerInputs: Controller:MechanicalVentilation=\"CONTROLLER MECHANICAL VENTILATION 5",
    "   **   ~~~   ** Cannot locate a matching DesignSpecification:ZoneAirDistribution object for Zone=\"117\".",
    "   **   ~~~   ** Using default zone air distribution effectiveness of 1.0 for heating and cooling.",
    "   ** Warning ** GetOAControllerInputs: Controller:MechanicalVentilation=\"CONTROLLER MECHANICAL VENTILATION 5",
    "   **   ~~~   ** Cannot locate a matching DesignSpecification:ZoneAirDistribution object for Zone=\"F101\".",
    "   **   ~~~   ** Using default zone air distribution effectiveness of 1.0 for heating and cooling.",
    "   ** Warning ** GetOAControllerInputs: Controller:MechanicalVentilation=\"CONTROLLER MECHANICAL VENTILATION 5",
    "   **   ~~~   ** Cannot locate a matching DesignSpecification:ZoneAirDistribution object for Zone=\"F102\".",
    "   **   ~~~   ** Using default zone air distribution effectiveness of 1.0 for heating and cooling.",
    "   ** Warning ** GetOAControllerInputs: Controller:MechanicalVentilation=\"CONTROLLER MECHANICAL VENTILATION 5",
    "   **   ~~~   ** Cannot locate a matching DesignSpecification:ZoneAirDistribution object for Zone=\"Q101\".",
    "   **   ~~~   ** Using default zone air distribution effectiveness of 1.0 for heating and cooling.",
    "   ** Warning ** GetOAControllerInputs: Controller:MechanicalVentilation=\"CONTROLLER MECHANICAL VENTILATION 5",
    "   **   ~~~   ** Cannot locate a matching DesignSpecification:ZoneAirDistribution object for Zone=\"R107\".",
    "   **   ~~~   ** Using default zone air distribution effectiveness of 1.0 for heating and cooling.",
    "   ** Warning ** GetOAControllerInputs: Controller:MechanicalVentilation=\"CONTROLLER MECHANICAL VENTILATION 5",
    "   **   ~~~   ** Cannot locate a matching DesignSpecification:ZoneAirDistribution object for Zone=\"R111\".",
    "   **   ~~~   ** Using default zone air distribution effectiveness of 1.0 for heating and cooling.",
    "   ** Warning ** GetOAControllerInputs: Controller:MechanicalVentilation=\"CONTROLLER MECHANICAL VENTILATION 6",
    "   **   ~~~   ** Cannot locate a matching DesignSpecification:ZoneAirDistribution object for Zone=\"202\".",
    "   **   ~~~   ** Using default zone air distribution effectiveness of 1.0 for heating and cooling.",
    "   ** Warning ** GetOAControllerInputs: Controller:MechanicalVentilation=\"CONTROLLER MECHANICAL VENTILATION 6",
    "   **   ~~~   ** Cannot locate a matching DesignSpecification:ZoneAirDistribution object for Zone=\"203\".",
    "   **   ~~~   ** Using default zone air distribution effectiveness of 1.0 for heating and cooling.",
    "   ** Warning ** GetOAControllerInputs: Controller:MechanicalVentilation=\"CONTROLLER MECHANICAL VENTILATION 6",
    "   **   ~~~   ** Cannot locate a matching DesignSpecification:ZoneAirDistribution object for Zone=\"204\".",
    "   **   ~~~   ** Using default zone air distribution effectiveness of 1.0 for heating and cooling.",
    "   ** Warning ** GetOAControllerInputs: Controller:MechanicalVentilation=\"CONTROLLER MECHANICAL VENTILATION 6",
    "   **   ~~~   ** Cannot locate a matching DesignSpecification:ZoneAirDistribution object for Zone=\"205\".",
    "   **   ~~~   ** Using default zone air distribution effectiveness of 1.0 for heating and cooling.",
    "   ** Warning ** GetOAControllerInputs: Controller:MechanicalVentilation=\"CONTROLLER MECHANICAL VENTILATION 6",
    "   **   ~~~   ** Cannot locate a matching DesignSpecification:ZoneAirDistribution object for Zone=\"206\".",
    "   **   ~~~   ** Using default zone air distribution effectiveness of 1.0 for heating and cooling.",
    "   ** Warning ** GetOAControllerInputs: Controller:MechanicalVentilation=\"CONTROLLER MECHANICAL VENTILATION 6",
    "   **   ~~~   ** Cannot locate a matching DesignSpecification:ZoneAirDistribution object for Zone=\"207\".",
    "   **   ~~~   ** Using default zone air distribution effectiveness of 1.0 for heating and cooling.",
    "   ** Warning ** GetOAControllerInputs: Controller:MechanicalVentilation=\"CONTROLLER MECHANICAL VENTILATION 6",
    "   **   ~~~   ** Cannot locate a matching DesignSpecification:ZoneAirDistribution object for Zone=\"208\".",
    "   **   ~~~   ** Using default zone air distribution effectiveness of 1.0 for heating and cooling.",
    "   ** Warning ** GetOAControllerInputs: Controller:MechanicalVentilation=\"CONTROLLER MECHANICAL VENTILATION 6",
    "   **   ~~~   ** Cannot locate a matching DesignSpecification:ZoneAirDistribution object for Zone=\"210\".",
    "   **   ~~~   ** Using default zone air distribution effectiveness of 1.0 for heating and cooling.",
    "   ** Warning ** GetOAControllerInputs: Controller:MechanicalVentilation=\"CONTROLLER MECHANICAL VENTILATION 6",
    "   **   ~~~   ** Cannot locate a matching DesignSpecification:ZoneAirDistribution object for Zone=\"211\".",
    "   **   ~~~   ** Using default zone air distribution effectiveness of 1.0 for heating and cooling.",
    "   ** Warning ** GetOAControllerInputs: Controller:MechanicalVentilation=\"CONTROLLER MECHANICAL VENTILATION 6",
    "   **   ~~~   ** Cannot locate a matching DesignSpecification:ZoneAirDistribution object for Zone=\"212\".",
    "   **   ~~~   ** Using default zone air distribution effectiveness of 1.0 for heating and cooling.",
    "   ** Warning ** GetOAControllerInputs: Controller:MechanicalVentilation=\"CONTROLLER MECHANICAL VENTILATION 6",
    "   **   ~~~   ** Cannot locate a matching DesignSpecification:ZoneAirDistribution object for Zone=\"213\".",
    "   **   ~~~   ** Using default zone air distribution effectiveness of 1.0 for heating and cooling.",
    "   ** Warning ** GetOAControllerInputs: Controller:MechanicalVentilation=\"CONTROLLER MECHANICAL VENTILATION 6",
    "   **   ~~~   ** Cannot locate a matching DesignSpecification:ZoneAirDistribution object for Zone=\"214\".",
    "   **   ~~~   ** Using default zone air distribution effectiveness of 1.0 for heating and cooling.",
    "   ** Warning ** GetOAControllerInputs: Controller:MechanicalVentilation=\"CONTROLLER MECHANICAL VENTILATION 6",
    "   **   ~~~   ** Cannot locate a matching DesignSpecification:ZoneAirDistribution object for Zone=\"215\".",
    "   **   ~~~   ** Using default zone air distribution effectiveness of 1.0 for heating and cooling.",
    "   ** Warning ** GetOAControllerInputs: Controller:MechanicalVentilation=\"CONTROLLER MECHANICAL VENTILATION 6",
    "   **   ~~~   ** Cannot locate a matching DesignSpecification:ZoneAirDistribution object for Zone=\"216\".",
    "   **   ~~~   ** Using default zone air distribution effectiveness of 1.0 for heating and cooling.",
    "   ** Warning ** GetOAControllerInputs: Controller:MechanicalVentilation=\"CONTROLLER MECHANICAL VENTILATION 6",
    "   **   ~~~   ** Cannot locate a matching DesignSpecification:ZoneAirDistribution object for Zone=\"217\".",
    "   **   ~~~   ** Using default zone air distribution effectiveness of 1.0 for heating and cooling.",
    "   ** Warning ** GetOAControllerInputs: Controller:MechanicalVentilation=\"CONTROLLER MECHANICAL VENTILATION 6",
    "   **   ~~~   ** Cannot locate a matching DesignSpecification:ZoneAirDistribution object for Zone=\"F201\".",
    "   **   ~~~   ** Using default zone air distribution effectiveness of 1.0 for heating and cooling.",
    "   ** Warning ** GetOAControllerInputs: Controller:MechanicalVentilation=\"CONTROLLER MECHANICAL VENTILATION 6",
    "   **   ~~~   ** Cannot locate a matching DesignSpecification:ZoneAirDistribution object for Zone=\"Q201\".",
    "   **   ~~~   ** Using default zone air distribution effectiveness of 1.0 for heating and cooling.",
    "   ** Warning ** GetOAControllerInputs: Controller:MechanicalVentilation=\"CONTROLLER MECHANICAL VENTILATION 6",
    "   **   ~~~   ** Cannot locate a matching DesignSpecification:ZoneAirDistribution object for Zone=\"R206\".",
    "   **   ~~~   ** Using default zone air distribution effectiveness of 1.0 for heating and cooling.",
    "   ** Warning ** GetOAControllerInputs: Controller:MechanicalVentilation=\"CONTROLLER MECHANICAL VENTILATION 6",
    "   **   ~~~   ** Cannot locate a matching DesignSpecification:ZoneAirDistribution object for Zone=\"R211\".",
    "   **   ~~~   ** Using default zone air distribution effectiveness of 1.0 for heating and cooling.",
    "   ** Warning ** GetOAControllerInputs: Controller:MechanicalVentilation=\"CONTROLLER MECHANICAL VENTILATION 4",
    "   **   ~~~   ** Cannot locate a matching DesignSpecification:ZoneAirDistribution object for Zone=\"302\".",
    "   **   ~~~   ** Using default zone air distribution effectiveness of 1.0 for heating and cooling.",
    "   ** Warning ** GetOAControllerInputs: Controller:MechanicalVentilation=\"CONTROLLER MECHANICAL VENTILATION 4",
    "   **   ~~~   ** Cannot locate a matching DesignSpecification:ZoneAirDistribution object for Zone=\"303\".",
    "   **   ~~~   ** Using default zone air distribution effectiveness of 1.0 for heating and cooling.",
    "   ** Warning ** GetOAControllerInputs: Controller:MechanicalVentilation=\"CONTROLLER MECHANICAL VENTILATION 4",
    "   **   ~~~   ** Cannot locate a matching DesignSpecification:ZoneAirDistribution object for Zone=\"304\".",
    "   **   ~~~   ** Using default zone air distribution effectiveness of 1.0 for heating and cooling.",
    "   ** Warning ** GetOAControllerInputs: Controller:MechanicalVentilation=\"CONTROLLER MECHANICAL VENTILATION 4",
    "   **   ~~~   ** Cannot locate a matching DesignSpecification:ZoneAirDistribution object for Zone=\"306\".",
    "   **   ~~~   ** Using default zone air distribution effectiveness of 1.0 for heating and cooling.",
    "   ** Warning ** GetOAControllerInputs: Controller:MechanicalVentilation=\"CONTROLLER MECHANICAL VENTILATION 4",
    "   **   ~~~   ** Cannot locate a matching DesignSpecification:ZoneAirDistribution object for Zone=\"307\".",
    "   **   ~~~   ** Using default zone air distribution effectiveness of 1.0 for heating and cooling.",
    "   ** Warning ** GetOAControllerInputs: Controller:MechanicalVentilation=\"CONTROLLER MECHANICAL VENTILATION 4",
    "   **   ~~~   ** Cannot locate a matching DesignSpecification:ZoneAirDistribution object for Zone=\"308\".",
    "   **   ~~~   ** Using default zone air distribution effectiveness of 1.0 for heating and cooling.",
    "   ** Warning ** GetOAControllerInputs: Controller:MechanicalVentilation=\"CONTROLLER MECHANICAL VENTILATION 4",
    "   **   ~~~   ** Cannot locate a matching DesignSpecification:ZoneAirDistribution object for Zone=\"309\".",
    "   **   ~~~   ** Using default zone air distribution effectiveness of 1.0 for heating and cooling.",
    "   ** Warning ** GetOAControllerInputs: Controller:MechanicalVentilation=\"CONTROLLER MECHANICAL VENTILATION 4",
    "   **   ~~~   ** Cannot locate a matching DesignSpecification:ZoneAirDistribution object for Zone=\"310\".",
    "   **   ~~~   ** Using default zone air distribution effectiveness of 1.0 for heating and cooling.",
    "   ** Warning ** GetOAControllerInputs: Controller:MechanicalVentilation=\"CONTROLLER MECHANICAL VENTILATION 4",
    "   **   ~~~   ** Cannot locate a matching DesignSpecification:ZoneAirDistribution object for Zone=\"311\".",
    "   **   ~~~   ** Using default zone air distribution effectiveness of 1.0 for heating and cooling.",
    "   ** Warning ** GetOAControllerInputs: Controller:MechanicalVentilation=\"CONTROLLER MECHANICAL VENTILATION 4",
    "   **   ~~~   ** Cannot locate a matching DesignSpecification:ZoneAirDistribution object for Zone=\"312\".",
    "   **   ~~~   ** Using default zone air distribution effectiveness of 1.0 for heating and cooling.",
    "   ** Warning ** GetOAControllerInputs: Controller:MechanicalVentilation=\"CONTROLLER MECHANICAL VENTILATION 4",
    "   **   ~~~   ** Cannot locate a matching DesignSpecification:ZoneAirDistribution object for Zone=\"313\".",
    "   **   ~~~   ** Using default zone air distribution effectiveness of 1.0 for heating and cooling.",
    "   ** Warning ** GetOAControllerInputs: Controller:MechanicalVentilation=\"CONTROLLER MECHANICAL VENTILATION 4",
    "   **   ~~~   ** Cannot locate a matching DesignSpecification:ZoneAirDistribution object for Zone=\"315\".",
    "   **   ~~~   ** Using default zone air distribution effectiveness of 1.0 for heating and cooling.",
    "   ** Warning ** GetOAControllerInputs: Controller:MechanicalVentilation=\"CONTROLLER MECHANICAL VENTILATION 4",
    "   **   ~~~   ** Cannot locate a matching DesignSpecification:ZoneAirDistribution object for Zone=\"316\".",
    "   **   ~~~   ** Using default zone air distribution effectiveness of 1.0 for heating and cooling.",
    "   ** Warning ** GetOAControllerInputs: Controller:MechanicalVentilation=\"CONTROLLER MECHANICAL VENTILATION 4",
    "   **   ~~~   ** Cannot locate a matching DesignSpecification:ZoneAirDistribution object for Zone=\"317\".",
    "   **   ~~~   ** Using default zone air distribution effectiveness of 1.0 for heating and cooling.",
    "   ** Warning ** GetOAControllerInputs: Controller:MechanicalVentilation=\"CONTROLLER MECHANICAL VENTILATION 4",
    "   **   ~~~   ** Cannot locate a matching DesignSpecification:ZoneAirDistribution object for Zone=\"318\".",
    "   **   ~~~   ** Using default zone air distribution effectiveness of 1.0 for heating and cooling.",
    "   ** Warning ** GetOAControllerInputs: Controller:MechanicalVentilation=\"CONTROLLER MECHANICAL VENTILATION 4",
    "   **   ~~~   ** Cannot locate a matching DesignSpecification:ZoneAirDistribution object for Zone=\"F301\".",
    "   **   ~~~   ** Using default zone air distribution effectiveness of 1.0 for heating and cooling.",
    "   ** Warning ** GetOAControllerInputs: Controller:MechanicalVentilation=\"CONTROLLER MECHANICAL VENTILATION 4",
    "   **   ~~~   ** Cannot locate a matching DesignSpecification:ZoneAirDistribution object for Zone=\"Q301\".",
    "   **   ~~~   ** Using default zone air distribution effectiveness of 1.0 for heating and cooling.",
    "   ** Warning ** GetOAControllerInputs: Controller:MechanicalVentilation=\"CONTROLLER MECHANICAL VENTILATION 4",
    "   **   ~~~   ** Cannot locate a matching DesignSpecification:ZoneAirDistribution object for Zone=\"R306\".",
    "   **   ~~~   ** Using default zone air distribution effectiveness of 1.0 for heating and cooling.",
    "   ** Warning ** GetOAControllerInputs: Controller:MechanicalVentilation=\"CONTROLLER MECHANICAL VENTILATION 4",
    "   **   ~~~   ** Cannot locate a matching DesignSpecification:ZoneAirDistribution object for Zone=\"R312\".",
    "   **   ~~~   ** Using default zone air distribution effectiveness of 1.0 for heating and cooling.",
    "   ** Warning ** Output:Meter: invalid Key Name=\"DISTRICTCOOLING:FACILITY\" - not found.",
    "   ** Warning ** Output:Meter: invalid Key Name=\"DISTRICTHEATING:FACILITY\" - not found.",
    "   ** Warning ** Output:Meter:MeterFileOnly requested for \"Electricity:Facility\" (TimeStep), already on \"Output:Meter\". Will report to both eplusout.eso and eplusout.mtr",
    "   ************* Testing Individual Branch Integrity",
    "   ************* All Branches passed integrity testing",
    "   ************* Testing Individual Supply Air Path Integrity",
    "   ** Severe  ** AirLoopHVAC:ZoneSplitter=\"AIR LOOP HVAC ZONE SPLITTER 1\", not found on any AirLoopHVAC:SupplyPath.",
    "   ** Severe  ** AirLoopHVAC:ZoneSplitter=\"AIR LOOP HVAC ZONE SPLITTER 2\", not found on any AirLoopHVAC:SupplyPath.",
    "   ** Severe  ** AirLoopHVAC:ZoneSplitter=\"AIR LOOP HVAC ZONE SPLITTER 3\", not found on any AirLoopHVAC:SupplyPath.",
    "   ************* All Supply Air Paths passed integrity testing",
    "   ************* Testing Individual Return Air Path Integrity",
    "   ** Severe  ** AirLoopHVAC:ZoneMixer=\"AIR LOOP HVAC ZONE MIXER 1\", not found on any AirLoopHVAC:ReturnPath, AirTerminal:SingleDuct:SeriesPIU:Reheat,",
    "   **   ~~~   ** AirTerminal:SingleDuct:ParallelPIU:Reheat or AirTerminal:SingleDuct:ConstantVolume:FourPipeInduction.",
    "   ** Severe  ** AirLoopHVAC:ZoneMixer=\"AIR LOOP HVAC ZONE MIXER 2\", not found on any AirLoopHVAC:ReturnPath, AirTerminal:SingleDuct:SeriesPIU:Reheat,",
    "   **   ~~~   ** AirTerminal:SingleDuct:ParallelPIU:Reheat or AirTerminal:SingleDuct:ConstantVolume:FourPipeInduction.",
    "   ** Severe  ** AirLoopHVAC:ZoneMixer=\"AIR LOOP HVAC ZONE MIXER 3\", not found on any AirLoopHVAC:ReturnPath, AirTerminal:SingleDuct:SeriesPIU:Reheat,",
    "   **   ~~~   ** AirTerminal:SingleDuct:ParallelPIU:Reheat or AirTerminal:SingleDuct:ConstantVolume:FourPipeInduction.",
    "   ************* All Return Air Paths passed integrity testing",
    "   ** Severe  ** Node Connection Error, Node=\"NODE 60\", Inlet node did not find an appropriate matching \"outlet\" node.",
    "   **   ~~~   ** If this is an outdoor air inlet node, it must be listed in an OutdoorAir:Node or OutdoorAir:NodeList object.",
    "   **   ~~~   ** Reference Object=AIRLOOPHVAC:ZONESPLITTER, Name=AIR LOOP HVAC ZONE SPLITTER 1",
    "   ** Severe  ** Node Connection Error, Node=\"NODE 97\", Inlet node did not find an appropriate matching \"outlet\" node.",
    "   **   ~~~   ** If this is an outdoor air inlet node, it must be listed in an OutdoorAir:Node or OutdoorAir:NodeList object.",
    "   **   ~~~   ** Reference Object=AIRLOOPHVAC:ZONESPLITTER, Name=AIR LOOP HVAC ZONE SPLITTER 2",
    "   ** Severe  ** Node Connection Error, Node=\"NODE 136\", Inlet node did not find an appropriate matching \"outlet\" node.",
    "   **   ~~~   ** If this is an outdoor air inlet node, it must be listed in an OutdoorAir:Node or OutdoorAir:NodeList object.",
    "   **   ~~~   ** Reference Object=AIRLOOPHVAC:ZONESPLITTER, Name=AIR LOOP HVAC ZONE SPLITTER 3",
    "   ** Severe  ** Node Connection Error, Node=\"NODE 68\", Inlet node did not find an appropriate matching \"outlet\" node.",
    "   **   ~~~   ** If this is an outdoor air inlet node, it must be listed in an OutdoorAir:Node or OutdoorAir:NodeList object.",
    "   **   ~~~   ** Reference Object=AIRLOOPHVAC:ZONEMIXER, Name=AIR LOOP HVAC ZONE MIXER 1",
    "   ** Severe  ** Node Connection Error, Node=\"NODE 70\", Inlet node did not find an appropriate matching \"outlet\" node.",
    "   **   ~~~   ** If this is an outdoor air inlet node, it must be listed in an OutdoorAir:Node or OutdoorAir:NodeList object.",
    "   **   ~~~   ** Reference Object=AIRLOOPHVAC:ZONEMIXER, Name=AIR LOOP HVAC ZONE MIXER 1",
    "   ** Severe  ** Node Connection Error, Node=\"NODE 72\", Inlet node did not find an appropriate matching \"outlet\" node.",
    "   **   ~~~   ** If this is an outdoor air inlet node, it must be listed in an OutdoorAir:Node or OutdoorAir:NodeList object.",
    "   **   ~~~   ** Reference Object=AIRLOOPHVAC:ZONEMIXER, Name=AIR LOOP HVAC ZONE MIXER 1",
    "   ** Severe  ** Node Connection Error, Node=\"NODE 74\", Inlet node did not find an appropriate matching \"outlet\" node.",
    "   **   ~~~   ** If this is an outdoor air inlet node, it must be listed in an OutdoorAir:Node or OutdoorAir:NodeList object.",
    "   **   ~~~   ** Reference Object=AIRLOOPHVAC:ZONEMIXER, Name=AIR LOOP HVAC ZONE MIXER 1",
    "   ** Severe  ** Node Connection Error, Node=\"NODE 76\", Inlet node did not find an appropriate matching \"outlet\" node.",
    "   **   ~~~   ** If this is an outdoor air inlet node, it must be listed in an OutdoorAir:Node or OutdoorAir:NodeList object.",
    "   **   ~~~   ** Reference Object=AIRLOOPHVAC:ZONEMIXER, Name=AIR LOOP HVAC ZONE MIXER 1",
    "   ** Severe  ** Node Connection Error, Node=\"NODE 78\", Inlet node did not find an appropriate matching \"outlet\" node.",
    "   **   ~~~   ** If this is an outdoor air inlet node, it must be listed in an OutdoorAir:Node or OutdoorAir:NodeList object.",
    "   **   ~~~   ** Reference Object=AIRLOOPHVAC:ZONEMIXER, Name=AIR LOOP HVAC ZONE MIXER 1",
    "   ** Severe  ** Node Connection Error, Node=\"NODE 80\", Inlet node did not find an appropriate matching \"outlet\" node.",
    "   **   ~~~   ** If this is an outdoor air inlet node, it must be listed in an OutdoorAir:Node or OutdoorAir:NodeList object.",
    "   **   ~~~   ** Reference Object=AIRLOOPHVAC:ZONEMIXER, Name=AIR LOOP HVAC ZONE MIXER 1",
    "   ** Severe  ** Node Connection Error, Node=\"NODE 82\", Inlet node did not find an appropriate matching \"outlet\" node.",
    "   **   ~~~   ** If this is an outdoor air inlet node, it must be listed in an OutdoorAir:Node or OutdoorAir:NodeList object.",
    "   **   ~~~   ** Reference Object=AIRLOOPHVAC:ZONEMIXER, Name=AIR LOOP HVAC ZONE MIXER 1",
    "   ** Severe  ** Node Connection Error, Node=\"NODE 84\", Inlet node did not find an appropriate matching \"outlet\" node.",
    "   **   ~~~   ** If this is an outdoor air inlet node, it must be listed in an OutdoorAir:Node or OutdoorAir:NodeList object.",
    "   **   ~~~   ** Reference Object=AIRLOOPHVAC:ZONEMIXER, Name=AIR LOOP HVAC ZONE MIXER 1",
    "   ** Severe  ** Node Connection Error, Node=\"NODE 86\", Inlet node did not find an appropriate matching \"outlet\" node.",
    "   **   ~~~   ** If this is an outdoor air inlet node, it must be listed in an OutdoorAir:Node or OutdoorAir:NodeList object.",
    "   **   ~~~   ** Reference Object=AIRLOOPHVAC:ZONEMIXER, Name=AIR LOOP HVAC ZONE MIXER 1",
    "   ** Severe  ** Node Connection Error, Node=\"NODE 88\", Inlet node did not find an appropriate matching \"outlet\" node.",
    "   **   ~~~   ** If this is an outdoor air inlet node, it must be listed in an OutdoorAir:Node or OutdoorAir:NodeList object.",
    "   **   ~~~   ** Reference Object=AIRLOOPHVAC:ZONEMIXER, Name=AIR LOOP HVAC ZONE MIXER 1",
    "   ** Severe  ** Node Connection Error, Node=\"NODE 90\", Inlet node did not find an appropriate matching \"outlet\" node.",
    "   **   ~~~   ** If this is an outdoor air inlet node, it must be listed in an OutdoorAir:Node or OutdoorAir:NodeList object.",
    "   **   ~~~   ** Reference Object=AIRLOOPHVAC:ZONEMIXER, Name=AIR LOOP HVAC ZONE MIXER 1",
    "   ** Severe  ** Node Connection Error, Node=\"NODE 92\", Inlet node did not find an appropriate matching \"outlet\" node.",
    "   **   ~~~   ** If this is an outdoor air inlet node, it must be listed in an OutdoorAir:Node or OutdoorAir:NodeList object.",
    "   **   ~~~   ** Reference Object=AIRLOOPHVAC:ZONEMIXER, Name=AIR LOOP HVAC ZONE MIXER 1",
    "   ** Severe  ** Node Connection Error, Node=\"NODE 94\", Inlet node did not find an appropriate matching \"outlet\" node.",
    "   **   ~~~   ** If this is an outdoor air inlet node, it must be listed in an OutdoorAir:Node or OutdoorAir:NodeList object.",
    "   **   ~~~   ** Reference Object=AIRLOOPHVAC:ZONEMIXER, Name=AIR LOOP HVAC ZONE MIXER 1",
    "   ** Severe  ** Node Connection Error, Node=\"NODE 176\", Inlet node did not find an appropriate matching \"outlet\" node.",
    "   **   ~~~   ** If this is an outdoor air inlet node, it must be listed in an OutdoorAir:Node or OutdoorAir:NodeList object.",
    "   **   ~~~   ** Reference Object=AIRLOOPHVAC:ZONEMIXER, Name=AIR LOOP HVAC ZONE MIXER 1",
    "   ** Severe  ** Node Connection Error, Node=\"NODE 178\", Inlet node did not find an appropriate matching \"outlet\" node.",
    "   **   ~~~   ** If this is an outdoor air inlet node, it must be listed in an OutdoorAir:Node or OutdoorAir:NodeList object.",
    "   **   ~~~   ** Reference Object=AIRLOOPHVAC:ZONEMIXER, Name=AIR LOOP HVAC ZONE MIXER 1",
    "   ** Severe  ** Node Connection Error, Node=\"NODE 196\", Inlet node did not find an appropriate matching \"outlet\" node.",
    "   **   ~~~   ** If this is an outdoor air inlet node, it must be listed in an OutdoorAir:Node or OutdoorAir:NodeList object.",
    "   **   ~~~   ** Reference Object=AIRLOOPHVAC:ZONEMIXER, Name=AIR LOOP HVAC ZONE MIXER 1",
    "   ** Severe  ** Node Connection Error, Node=\"NODE 198\", Inlet node did not find an appropriate matching \"outlet\" node.",
    "   **   ~~~   ** If this is an outdoor air inlet node, it must be listed in an OutdoorAir:Node or OutdoorAir:NodeList object.",
    "   **   ~~~   ** Reference Object=AIRLOOPHVAC:ZONEMIXER, Name=AIR LOOP HVAC ZONE MIXER 1",
    "   ** Severe  ** Node Connection Error, Node=\"NODE 105\", Inlet node did not find an appropriate matching \"outlet\" node.",
    "   **   ~~~   ** If this is an outdoor air inlet node, it must be listed in an OutdoorAir:Node or OutdoorAir:NodeList object.",
    "   **   ~~~   ** Reference Object=AIRLOOPHVAC:ZONEMIXER, Name=AIR LOOP HVAC ZONE MIXER 2",
    "   ** Severe  ** Node Connection Error, Node=\"NODE 107\", Inlet node did not find an appropriate matching \"outlet\" node.",
    "   **   ~~~   ** If this is an outdoor air inlet node, it must be listed in an OutdoorAir:Node or OutdoorAir:NodeList object.",
    "   **   ~~~   ** Reference Object=AIRLOOPHVAC:ZONEMIXER, Name=AIR LOOP HVAC ZONE MIXER 2",
    "   ** Severe  ** Node Connection Error, Node=\"NODE 109\", Inlet node did not find an appropriate matching \"outlet\" node.",
    "   **   ~~~   ** If this is an outdoor air inlet node, it must be listed in an OutdoorAir:Node or OutdoorAir:NodeList object.",
    "   **   ~~~   ** Reference Object=AIRLOOPHVAC:ZONEMIXER, Name=AIR LOOP HVAC ZONE MIXER 2",
    "   ** Severe  ** Node Connection Error, Node=\"NODE 111\", Inlet node did not find an appropriate matching \"outlet\" node.",
    "   **   ~~~   ** If this is an outdoor air inlet node, it must be listed in an OutdoorAir:Node or OutdoorAir:NodeList object.",
    "   **   ~~~   ** Reference Object=AIRLOOPHVAC:ZONEMIXER, Name=AIR LOOP HVAC ZONE MIXER 2",
    "   ** Severe  ** Node Connection Error, Node=\"NODE 113\", Inlet node did not find an appropriate matching \"outlet\" node.",
    "   **   ~~~   ** If this is an outdoor air inlet node, it must be listed in an OutdoorAir:Node or OutdoorAir:NodeList object.",
    "   **   ~~~   ** Reference Object=AIRLOOPHVAC:ZONEMIXER, Name=AIR LOOP HVAC ZONE MIXER 2",
    "   ** Severe  ** Node Connection Error, Node=\"NODE 115\", Inlet node did not find an appropriate matching \"outlet\" node.",
    "   **   ~~~   ** If this is an outdoor air inlet node, it must be listed in an OutdoorAir:Node or OutdoorAir:NodeList object.",
    "   **   ~~~   ** Reference Object=AIRLOOPHVAC:ZONEMIXER, Name=AIR LOOP HVAC ZONE MIXER 2",
    "   ** Severe  ** Node Connection Error, Node=\"NODE 117\", Inlet node did not find an appropriate matching \"outlet\" node.",
    "   **   ~~~   ** If this is an outdoor air inlet node, it must be listed in an OutdoorAir:Node or OutdoorAir:NodeList object.",
    "   **   ~~~   ** Reference Object=AIRLOOPHVAC:ZONEMIXER, Name=AIR LOOP HVAC ZONE MIXER 2",
    "   ** Severe  ** Node Connection Error, Node=\"NODE 119\", Inlet node did not find an appropriate matching \"outlet\" node.",
    "   **   ~~~   ** If this is an outdoor air inlet node, it must be listed in an OutdoorAir:Node or OutdoorAir:NodeList object.",
    "   **   ~~~   ** Reference Object=AIRLOOPHVAC:ZONEMIXER, Name=AIR LOOP HVAC ZONE MIXER 2",
    "   ** Severe  ** Node Connection Error, Node=\"NODE 121\", Inlet node did not find an appropriate matching \"outlet\" node.",
    "   **   ~~~   ** If this is an outdoor air inlet node, it must be listed in an OutdoorAir:Node or OutdoorAir:NodeList object.",
    "   **   ~~~   ** Reference Object=AIRLOOPHVAC:ZONEMIXER, Name=AIR LOOP HVAC ZONE MIXER 2",
    "   ** Severe  ** Node Connection Error, Node=\"NODE 123\", Inlet node did not find an appropriate matching \"outlet\" node.",
    "   **   ~~~   ** If this is an outdoor air inlet node, it must be listed in an OutdoorAir:Node or OutdoorAir:NodeList object.",
    "   **   ~~~   ** Reference Object=AIRLOOPHVAC:ZONEMIXER, Name=AIR LOOP HVAC ZONE MIXER 2",
    "   ** Severe  ** Node Connection Error, Node=\"NODE 125\", Inlet node did not find an appropriate matching \"outlet\" node.",
    "   **   ~~~   ** If this is an outdoor air inlet node, it must be listed in an OutdoorAir:Node or OutdoorAir:NodeList object.",
    "   **   ~~~   ** Reference Object=AIRLOOPHVAC:ZONEMIXER, Name=AIR LOOP HVAC ZONE MIXER 2",
    "   ** Severe  ** Node Connection Error, Node=\"NODE 127\", Inlet node did not find an appropriate matching \"outlet\" node.",
    "   **   ~~~   ** If this is an outdoor air inlet node, it must be listed in an OutdoorAir:Node or OutdoorAir:NodeList object.",
    "   **   ~~~   ** Reference Object=AIRLOOPHVAC:ZONEMIXER, Name=AIR LOOP HVAC ZONE MIXER 2",
    "   ** Severe  ** Node Connection Error, Node=\"NODE 129\", Inlet node did not find an appropriate matching \"outlet\" node.",
    "   **   ~~~   ** If this is an outdoor air inlet node, it must be listed in an OutdoorAir:Node or OutdoorAir:NodeList object.",
    "   **   ~~~   ** Reference Object=AIRLOOPHVAC:ZONEMIXER, Name=AIR LOOP HVAC ZONE MIXER 2",
    "   ** Severe  ** Node Connection Error, Node=\"NODE 131\", Inlet node did not find an appropriate matching \"outlet\" node.",
    "   **   ~~~   ** If this is an outdoor air inlet node, it must be listed in an OutdoorAir:Node or OutdoorAir:NodeList object.",
    "   **   ~~~   ** Reference Object=AIRLOOPHVAC:ZONEMIXER, Name=AIR LOOP HVAC ZONE MIXER 2",
    "   ** Severe  ** Node Connection Error, Node=\"NODE 133\", Inlet node did not find an appropriate matching \"outlet\" node.",
    "   **   ~~~   ** If this is an outdoor air inlet node, it must be listed in an OutdoorAir:Node or OutdoorAir:NodeList object.",
    "   **   ~~~   ** Reference Object=AIRLOOPHVAC:ZONEMIXER, Name=AIR LOOP HVAC ZONE MIXER 2",
    "   ** Severe  ** Node Connection Error, Node=\"NODE 182\", Inlet node did not find an appropriate matching \"outlet\" node.",
    "   **   ~~~   ** If this is an outdoor air inlet node, it must be listed in an OutdoorAir:Node or OutdoorAir:NodeList object.",
    "   **   ~~~   ** Reference Object=AIRLOOPHVAC:ZONEMIXER, Name=AIR LOOP HVAC ZONE MIXER 2",
    "   ** Severe  ** Node Connection Error, Node=\"NODE 192\", Inlet node did not find an appropriate matching \"outlet\" node.",
    "   **   ~~~   ** If this is an outdoor air inlet node, it must be listed in an OutdoorAir:Node or OutdoorAir:NodeList object.",
    "   **   ~~~   ** Reference Object=AIRLOOPHVAC:ZONEMIXER, Name=AIR LOOP HVAC ZONE MIXER 2",
    "   ** Severe  ** Node Connection Error, Node=\"NODE 194\", Inlet node did not find an appropriate matching \"outlet\" node.",
    "   **   ~~~   ** If this is an outdoor air inlet node, it must be listed in an OutdoorAir:Node or OutdoorAir:NodeList object.",
    "   **   ~~~   ** Reference Object=AIRLOOPHVAC:ZONEMIXER, Name=AIR LOOP HVAC ZONE MIXER 2",
    "   ** Severe  ** Node Connection Error, Node=\"NODE 144\", Inlet node did not find an appropriate matching \"outlet\" node.",
    "   **   ~~~   ** If this is an outdoor air inlet node, it must be listed in an OutdoorAir:Node or OutdoorAir:NodeList object.",
    "   **   ~~~   ** Reference Object=AIRLOOPHVAC:ZONEMIXER, Name=AIR LOOP HVAC ZONE MIXER 3",
    "   ** Severe  ** Node Connection Error, Node=\"NODE 146\", Inlet node did not find an appropriate matching \"outlet\" node.",
    "   **   ~~~   ** If this is an outdoor air inlet node, it must be listed in an OutdoorAir:Node or OutdoorAir:NodeList object.",
    "   **   ~~~   ** Reference Object=AIRLOOPHVAC:ZONEMIXER, Name=AIR LOOP HVAC ZONE MIXER 3",
    "   ** Severe  ** Node Connection Error, Node=\"NODE 148\", Inlet node did not find an appropriate matching \"outlet\" node.",
    "   **   ~~~   ** If this is an outdoor air inlet node, it must be listed in an OutdoorAir:Node or OutdoorAir:NodeList object.",
    "   **   ~~~   ** Reference Object=AIRLOOPHVAC:ZONEMIXER, Name=AIR LOOP HVAC ZONE MIXER 3",
    "   ** Severe  ** Node Connection Error, Node=\"NODE 150\", Inlet node did not find an appropriate matching \"outlet\" node.",
    "   **   ~~~   ** If this is an outdoor air inlet node, it must be listed in an OutdoorAir:Node or OutdoorAir:NodeList object.",
    "   **   ~~~   ** Reference Object=AIRLOOPHVAC:ZONEMIXER, Name=AIR LOOP HVAC ZONE MIXER 3",
    "   ** Severe  ** Node Connection Error, Node=\"NODE 152\", Inlet node did not find an appropriate matching \"outlet\" node.",
    "   **   ~~~   ** If this is an outdoor air inlet node, it must be listed in an OutdoorAir:Node or OutdoorAir:NodeList object.",
    "   **   ~~~   ** Reference Object=AIRLOOPHVAC:ZONEMIXER, Name=AIR LOOP HVAC ZONE MIXER 3",
    "   ** Severe  ** Node Connection Error, Node=\"NODE 154\", Inlet node did not find an appropriate matching \"outlet\" node.",
    "   **   ~~~   ** If this is an outdoor air inlet node, it must be listed in an OutdoorAir:Node or OutdoorAir:NodeList object.",
    "   **   ~~~   ** Reference Object=AIRLOOPHVAC:ZONEMIXER, Name=AIR LOOP HVAC ZONE MIXER 3",
    "   ** Severe  ** Node Connection Error, Node=\"NODE 156\", Inlet node did not find an appropriate matching \"outlet\" node.",
    "   **   ~~~   ** If this is an outdoor air inlet node, it must be listed in an OutdoorAir:Node or OutdoorAir:NodeList object.",
    "   **   ~~~   ** Reference Object=AIRLOOPHVAC:ZONEMIXER, Name=AIR LOOP HVAC ZONE MIXER 3",
    "   ** Severe  ** Node Connection Error, Node=\"NODE 158\", Inlet node did not find an appropriate matching \"outlet\" node.",
    "   **   ~~~   ** If this is an outdoor air inlet node, it must be listed in an OutdoorAir:Node or OutdoorAir:NodeList object.",
    "   **   ~~~   ** Reference Object=AIRLOOPHVAC:ZONEMIXER, Name=AIR LOOP HVAC ZONE MIXER 3",
    "   ** Severe  ** Node Connection Error, Node=\"NODE 160\", Inlet node did not find an appropriate matching \"outlet\" node.",
    "   **   ~~~   ** If this is an outdoor air inlet node, it must be listed in an OutdoorAir:Node or OutdoorAir:NodeList object.",
    "   **   ~~~   ** Reference Object=AIRLOOPHVAC:ZONEMIXER, Name=AIR LOOP HVAC ZONE MIXER 3",
    "   ** Severe  ** Node Connection Error, Node=\"NODE 162\", Inlet node did not find an appropriate matching \"outlet\" node.",
    "   **   ~~~   ** If this is an outdoor air inlet node, it must be listed in an OutdoorAir:Node or OutdoorAir:NodeList object.",
    "   **   ~~~   ** Reference Object=AIRLOOPHVAC:ZONEMIXER, Name=AIR LOOP HVAC ZONE MIXER 3",
    "   ** Severe  ** Node Connection Error, Node=\"NODE 164\", Inlet node did not find an appropriate matching \"outlet\" node.",
    "   **   ~~~   ** If this is an outdoor air inlet node, it must be listed in an OutdoorAir:Node or OutdoorAir:NodeList object.",
    "   **   ~~~   ** Reference Object=AIRLOOPHVAC:ZONEMIXER, Name=AIR LOOP HVAC ZONE MIXER 3",
    "   ** Severe  ** Node Connection Error, Node=\"NODE 166\", Inlet node did not find an appropriate matching \"outlet\" node.",
    "   **   ~~~   ** If this is an outdoor air inlet node, it must be listed in an OutdoorAir:Node or OutdoorAir:NodeList object.",
    "   **   ~~~   ** Reference Object=AIRLOOPHVAC:ZONEMIXER, Name=AIR LOOP HVAC ZONE MIXER 3",
    "   ** Severe  ** Node Connection Error, Node=\"NODE 168\", Inlet node did not find an appropriate matching \"outlet\" node.",
    "   **   ~~~   ** If this is an outdoor air inlet node, it must be listed in an OutdoorAir:Node or OutdoorAir:NodeList object.",
    "   **   ~~~   ** Reference Object=AIRLOOPHVAC:ZONEMIXER, Name=AIR LOOP HVAC ZONE MIXER 3",
    "   ** Severe  ** Node Connection Error, Node=\"NODE 170\", Inlet node did not find an appropriate matching \"outlet\" node.",
    "   **   ~~~   ** If this is an outdoor air inlet node, it must be listed in an OutdoorAir:Node or OutdoorAir:NodeList object.",
    "   **   ~~~   ** Reference Object=AIRLOOPHVAC:ZONEMIXER, Name=AIR LOOP HVAC ZONE MIXER 3",
    "   ** Severe  ** Node Connection Error, Node=\"NODE 172\", Inlet node did not find an appropriate matching \"outlet\" node.",
    "   **   ~~~   ** If this is an outdoor air inlet node, it must be listed in an OutdoorAir:Node or OutdoorAir:NodeList object.",
    "   **   ~~~   ** Reference Object=AIRLOOPHVAC:ZONEMIXER, Name=AIR LOOP HVAC ZONE MIXER 3",
    "   ** Severe  ** Node Connection Error, Node=\"NODE 174\", Inlet node did not find an appropriate matching \"outlet\" node.",
    "   **   ~~~   ** If this is an outdoor air inlet node, it must be listed in an OutdoorAir:Node or OutdoorAir:NodeList object.",
    "   **   ~~~   ** Reference Object=AIRLOOPHVAC:ZONEMIXER, Name=AIR LOOP HVAC ZONE MIXER 3",
    "   ** Severe  ** Node Connection Error, Node=\"NODE 186\", Inlet node did not find an appropriate matching \"outlet\" node.",
    "   **   ~~~   ** If this is an outdoor air inlet node, it must be listed in an OutdoorAir:Node or OutdoorAir:NodeList object.",
    "   **   ~~~   ** Reference Object=AIRLOOPHVAC:ZONEMIXER, Name=AIR LOOP HVAC ZONE MIXER 3",
    "   ** Severe  ** Node Connection Error, Node=\"NODE 190\", Inlet node did not find an appropriate matching \"outlet\" node.",
    "   **   ~~~   ** If this is an outdoor air inlet node, it must be listed in an OutdoorAir:Node or OutdoorAir:NodeList object.",
    "   **   ~~~   ** Reference Object=AIRLOOPHVAC:ZONEMIXER, Name=AIR LOOP HVAC ZONE MIXER 3",
    "   ************* There were 57 node connection errors noted.",
    "   ************* Beginning Simulation",
    "   ** Warning ** Processing Monthly Tabular Reports: Variable names not valid for this simulation",
    "   **   ~~~   ** ...use Output:Diagnostics,DisplayExtraWarnings; to show more details on individual variables.",
    "   ** Warning ** Plant Loop: CONDENSER WATER LOOP Demand Side is storing excess heat the majority of the time.",
    "   ** Warning ** Plant Loop: CONDENSER WATER LOOP Supply Side is storing excess heat the majority of the time.",
    "   ** Warning ** Plant Loop: CONDENSER WATER LOOP 1 Demand Side is storing excess heat the majority of the time.",
    "   ** Warning ** Plant Loop: CONDENSER WATER LOOP 1 Supply Side is storing excess heat the majority of the time.",
    "   ** Warning ** Plant Loop: CONDENSER WATER LOOP 2 Demand Side is storing excess heat the majority of the time.",
    "   ** Warning ** Plant Loop: CONDENSER WATER LOOP 2 Supply Side is storing excess heat the majority of the time.",
    "   ** Warning ** The resource referenced by LifeCycleCost:UsePriceEscalation= \"U.S. AVG  COMMERCIAL-ELECTRICITY\" has no energy cost. ",
    "   **   ~~~   ** ... It is likely that the wrong resource is used. The resource should match the meter used in Utility:Tariff.",
    "   ** Warning ** The resource referenced by LifeCycleCost:UsePriceEscalation= \"U.S. AVG  COMMERCIAL-DISTILLATE OIL\" has no energy cost. ",
    "   **   ~~~   ** ... It is likely that the wrong resource is used. The resource should match the meter used in Utility:Tariff.",
    "   ** Warning ** The resource referenced by LifeCycleCost:UsePriceEscalation= \"U.S. AVG  COMMERCIAL-RESIDUAL OIL\" has no energy cost. ",
    "   **   ~~~   ** ... It is likely that the wrong resource is used. The resource should match the meter used in Utility:Tariff.",
    "   ** Warning ** The resource referenced by LifeCycleCost:UsePriceEscalation= \"U.S. AVG  COMMERCIAL-NATURAL GAS\" has no energy cost. ",
    "   **   ~~~   ** ... It is likely that the wrong resource is used. The resource should match the meter used in Utility:Tariff.",
    "   ** Warning ** The resource referenced by LifeCycleCost:UsePriceEscalation= \"U.S. AVG  COMMERCIAL-COAL\" has no energy cost. ",
    "   **   ~~~   ** ... It is likely that the wrong resource is used. The resource should match the meter used in Utility:Tariff.",
    "   ************* Simulation Error Summary *************",
    "   ************* There are 14 unused schedules in input.",
    "   ************* There are 17 unused week schedules in input.",
    "   ************* There are 48 unused day schedules in input.",
    "   ************* Use Output:Diagnostics,DisplayUnusedSchedules; to see them.",
    "   *************",
    "   ************* ===== Final Error Summary =====",
    "   ************* The following error categories occurred.  Consider correcting or noting.",
    "   ************* Node Connection Errors",
    "   ************* ..Node connection errors are often caused by spelling mistakes in a node name field.",
    "   ************* ..To track down the problem, search the idf file for each node name listed to see if it",
    "   ************* ..occurs in the expected input fields.",
    "   ************* Nominally Unused Constructions",
    "   ************* ..The nominally unused constructions warning is provided to alert you to potential conditions that can cause",
    "   ************* ..extra time during simulation. Each construction is calculated by the algorithm indicated in the HeatBalanceAlgorithm",
    "   ************* ..object. You may remove the constructions indicated (when you use the DisplayExtraWarnings option).",
    "   *************",
    "   ************* EnergyPlus Warmup Error Summary. During Warmup: 0 Warning; 0 Severe Errors.",
    "   ************* EnergyPlus Sizing Error Summary. During Sizing: 68 Warning; 0 Severe Errors.",
    "   ************* EnergyPlus Completed Successfully-- 140 Warning; 63 Severe Errors; "
  ],
  "file_paths": [
    "/home/julien/Software/Others/OpenStudio-resources/testruns/scheduled_infiltration.osm/generated_files",
    "./files",
    "./weather",
    "../../files",
    "../../weather",
    "./"
  ],
  "seed_file": "in.osm",
  "steps": [
    {
      "arguments": {
      },
      "measure_dir_name": "openstudio_results",
      "result": {
        "measure_class_name": "OpenStudioResults",
        "measure_display_name": "OpenStudio Results",
        "measure_name": "openstudio_results",
        "measure_taxonomy": "Reporting.QAQC",
        "measure_type": "ReportingMeasure",
        "measure_uid": "a25386cd-60e4-46bc-8b11-c755f379d916",
        "measure_version_id": "02ad7007-fe7b-4747-bd7a-29d697c4d91a",
        "measure_version_modified": "20180711T183039Z",
        "measure_xml_checksum": "557BF06F",
        "stderr": "",
        "stdout": "",
        "step_errors": [

        ],
        "step_final_condition": "Generated report with 20 sections to ./report.html.",
        "step_info": [

        ],
        "step_initial_condition": "Gathering data from EnergyPlus SQL file and OSM model.",
        "step_result": "Success",
        "step_values": [
          {
            "name": "building_summary_section",
            "value": true
          },
          {
            "name": "annual_overview_section",
            "value": true
          },
          {
            "name": "monthly_overview_section",
            "value": true
          },
          {
            "name": "utility_bills_rates_section",
            "value": true
          },
          {
            "name": "envelope_section_section",
            "value": true
          },
          {
            "name": "space_type_breakdown_section",
            "value": true
          },
          {
            "name": "space_type_details_section",
            "value": true
          },
          {
            "name": "interior_lighting_section",
            "value": true
          },
          {
            "name": "plug_loads_section",
            "value": true
          },
          {
            "name": "exterior_light_section",
            "value": true
          },
          {
            "name": "water_use_section",
            "value": true
          },
          {
            "name": "hvac_load_profile",
            "value": true
          },
          {
            "name": "zone_condition_section",
            "value": true
          },
          {
            "name": "zone_summary_section",
            "value": true
          },
          {
            "name": "zone_equipment_detail_section",
            "value": true
          },
          {
            "name": "air_loops_detail_section",
            "value": true
          },
          {
            "name": "plant_loops_detail_section",
            "value": true
          },
          {
            "name": "outdoor_air_section",
            "value": true
          },
          {
            "name": "cost_summary_section",
            "value": true
          },
          {
            "name": "source_energy_section",
            "value": true
          },
          {
            "name": "schedules_overview_section",
            "value": true
          },
          {
            "name": "standards_gem_version",
            "value": "0.2.11"
          },
          {
            "name": "workflow_gem_version",
            "value": "2.0.0"
          },
          {
            "display_name": "Mid-rise Apartment",
            "name": "building_name",
            "value": "n/a"
          },
          {
            "name": "total_site_energy",
            "units": "kBtu",
            "value": 753249.22
          },
          {
            "name": "net_site_energy",
            "units": "kBtu",
            "value": 753249.22
          },
          {
            "name": "total_building_area",
            "units": "ft^2",
            "value": 17268.0
          },
          {
            "name": "total_site_eui",
            "units": "kBtu/ft^2",
            "value": 43.62
          },
          {
            "name": "eui",
            "units": "kBtu/ft^2",
            "value": 43.62
          },
          {
            "name": "unmet_hours_during_heating",
            "units": "hr",
            "value": 282.5
          },
          {
            "name": "unmet_hours_during_cooling",
            "units": "hr",
            "value": 0.0
          },
          {
            "name": "unmet_hours_during_occupied_heating",
            "units": "hr",
            "value": 248.25
          },
          {
            "name": "unmet_hours_during_occupied_cooling",
            "units": "hr",
            "value": 0.0
          },
          {
            "name": "unmet_hours_tolerance_heating",
            "units": "F",
            "value": 0.36
          },
          {
            "name": "unmet_hours_tolerance_cooling",
            "units": "F",
            "value": 0.36
          },
          {
            "name": "end_use_heating",
            "units": "kBtu",
            "value": 210879.83
          },
          {
            "name": "end_use_cooling",
            "units": "kBtu",
            "value": 117320.8
          },
          {
            "name": "end_use_interior_lighting",
            "units": "kBtu",
            "value": 106525.17
          },
          {
            "name": "end_use_exterior_lighting",
            "units": "kBtu",
            "value": 0.0
          },
          {
            "name": "end_use_interior_equipment",
            "units": "kBtu",
            "value": 101416.43
          },
          {
            "name": "end_use_exterior_equipment",
            "units": "kBtu",
            "value": 0.0
          },
          {
            "name": "end_use_fans",
            "units": "kBtu",
            "value": 15847.5
          },
          {
            "name": "end_use_pumps",
            "units": "kBtu",
            "value": 141319.53
          },
          {
            "name": "end_use_heat_rejection",
            "units": "kBtu",
            "value": 59949.43
          },
          {
            "name": "end_use_humidification",
            "units": "kBtu",
            "value": 0.0
          },
          {
            "name": "end_use_heat_recovery",
            "units": "kBtu",
            "value": 0.0
          },
          {
            "name": "end_use_water_systems",
            "units": "kBtu",
            "value": 0.0
          },
          {
            "name": "end_use_refrigeration",
            "units": "kBtu",
            "value": 0.0
          },
          {
            "name": "end_use_generators",
            "units": "kBtu",
            "value": 0.0
          },
          {
            "name": "fuel_electricity",
            "units": "kBtu",
            "value": 542378.87
          },
          {
            "name": "fuel_natural_gas",
            "units": "kBtu",
            "value": 210879.83
          },
          {
            "name": "fuel_additional_fuel",
            "units": "kBtu",
            "value": 0.0
          },
          {
            "name": "fuel_district_cooling",
            "units": "kBtu",
            "value": 0.0
          },
          {
            "name": "fuel_district_heating",
            "units": "kBtu",
            "value": 0.0
          },
          {
            "name": "end_use_electricity_heating",
            "units": "kWh",
            "value": 0.0
          },
          {
            "name": "end_use_electricity_cooling",
            "units": "kWh",
            "value": 34383.33
          },
          {
            "name": "end_use_electricity_interior_lighting",
            "units": "kWh",
            "value": 31219.44
          },
          {
            "name": "end_use_electricity_exterior_lighting",
            "units": "kWh",
            "value": 0.0
          },
          {
            "name": "end_use_electricity_interior_equipment",
            "units": "kWh",
            "value": 29722.22
          },
          {
            "name": "end_use_electricity_exterior_equipment",
            "units": "kWh",
            "value": 0.0
          },
          {
            "name": "end_use_electricity_fans",
            "units": "kWh",
            "value": 4644.44
          },
          {
            "name": "end_use_electricity_pumps",
            "units": "kWh",
            "value": 41416.67
          },
          {
            "name": "end_use_electricity_heat_rejection",
            "units": "kWh",
            "value": 17569.44
          },
          {
            "name": "end_use_electricity_humidification",
            "units": "kWh",
            "value": 0.0
          },
          {
            "name": "end_use_electricity_heat_recovery",
            "units": "kWh",
            "value": 0.0
          },
          {
            "name": "end_use_electricity_water_systems",
            "units": "kWh",
            "value": 0.0
          },
          {
            "name": "end_use_electricity_refrigeration",
            "units": "kWh",
            "value": 0.0
          },
          {
            "name": "end_use_electricity_generators",
            "units": "kWh",
            "value": 0.0
          },
          {
            "name": "end_use_natural_gas_heating",
            "units": "therms",
            "value": 2109.21
          },
          {
            "name": "end_use_natural_gas_cooling",
            "units": "therms",
            "value": 0.0
          },
          {
            "name": "end_use_natural_gas_interior_lighting",
            "units": "therms",
            "value": 0.0
          },
          {
            "name": "end_use_natural_gas_exterior_lighting",
            "units": "therms",
            "value": 0.0
          },
          {
            "name": "end_use_natural_gas_interior_equipment",
            "units": "therms",
            "value": 0.0
          },
          {
            "name": "end_use_natural_gas_exterior_equipment",
            "units": "therms",
            "value": 0.0
          },
          {
            "name": "end_use_natural_gas_fans",
            "units": "therms",
            "value": 0.0
          },
          {
            "name": "end_use_natural_gas_pumps",
            "units": "therms",
            "value": 0.0
          },
          {
            "name": "end_use_natural_gas_heat_rejection",
            "units": "therms",
            "value": 0.0
          },
          {
            "name": "end_use_natural_gas_humidification",
            "units": "therms",
            "value": 0.0
          },
          {
            "name": "end_use_natural_gas_heat_recovery",
            "units": "therms",
            "value": 0.0
          },
          {
            "name": "end_use_natural_gas_water_systems",
            "units": "therms",
            "value": 0.0
          },
          {
            "name": "end_use_natural_gas_refrigeration",
            "units": "therms",
            "value": 0.0
          },
          {
            "name": "end_use_natural_gas_generators",
            "units": "therms",
            "value": 0.0
          },
          {
            "name": "electricity_heating_ip",
            "units": "kWh",
            "value": 0.0
          },
          {
            "name": "electricity_cooling_ip",
            "units": "kWh",
            "value": 34384.12
          },
          {
            "name": "electricity_interior_lighting_ip",
            "units": "kWh",
            "value": 31219.29
          },
          {
            "name": "electricity_exterior_lighting_ip",
            "units": "kWh",
            "value": 0.0
          },
          {
            "name": "electricity_interior_equipment_ip",
            "units": "kWh",
            "value": 29721.13
          },
          {
            "name": "electricity_exterior_equipment_ip",
            "units": "kWh",
            "value": 0.0
          },
          {
            "name": "electricity_fans_ip",
            "units": "kWh",
            "value": 4643.13
          },
          {
            "name": "electricity_pumps_ip",
            "units": "kWh",
            "value": 41416.89
          },
          {
            "name": "electricity_heat_rejection_ip",
            "units": "kWh",
            "value": 17569.63
          },
          {
            "name": "electricity_humidification_ip",
            "units": "kWh",
            "value": 0.0
          },
          {
            "name": "electricity_heat_recovery_ip",
            "units": "kWh",
            "value": 0.0
          },
          {
            "name": "electricity_water_systems_ip",
            "units": "kWh",
            "value": 0.0
          },
          {
            "name": "electricity_refrigeration_ip",
            "units": "kWh",
            "value": 0.0
          },
          {
            "name": "electricity_generators_ip",
            "units": "kWh",
            "value": 0.0
          },
          {
            "name": "electricity_ip",
            "units": "kWh",
            "value": 158954.19
          },
          {
            "name": "natural_gas_heating_ip",
            "units": "MBtu",
            "value": 210.88
          },
          {
            "name": "natural_gas_cooling_ip",
            "units": "MBtu",
            "value": 0.0
          },
          {
            "name": "natural_gas_interior_lighting_ip",
            "units": "MBtu",
            "value": 0.0
          },
          {
            "name": "natural_gas_exterior_lighting_ip",
            "units": "MBtu",
            "value": 0.0
          },
          {
            "name": "natural_gas_interior_equipment_ip",
            "units": "MBtu",
            "value": 0.0
          },
          {
            "name": "natural_gas_exterior_equipment_ip",
            "units": "MBtu",
            "value": 0.0
          },
          {
            "name": "natural_gas_fans_ip",
            "units": "MBtu",
            "value": 0.0
          },
          {
            "name": "natural_gas_pumps_ip",
            "units": "MBtu",
            "value": 0.0
          },
          {
            "name": "natural_gas_heat_rejection_ip",
            "units": "MBtu",
            "value": 0.0
          },
          {
            "name": "natural_gas_humidification_ip",
            "units": "MBtu",
            "value": 0.0
          },
          {
            "name": "natural_gas_heat_recovery_ip",
            "units": "MBtu",
            "value": 0.0
          },
          {
            "name": "natural_gas_water_systems_ip",
            "units": "MBtu",
            "value": 0.0
          },
          {
            "name": "natural_gas_refrigeration_ip",
            "units": "MBtu",
            "value": 0.0
          },
          {
            "name": "natural_gas_generators_ip",
            "units": "MBtu",
            "value": 0.0
          },
          {
            "name": "natural_gas_ip",
            "units": "MBtu",
            "value": 210.88
          },
          {
            "name": "additional_fuel_heating_ip",
            "units": "MBtu",
            "value": 0.0
          },
          {
            "name": "additional_fuel_cooling_ip",
            "units": "MBtu",
            "value": 0.0
          },
          {
            "name": "additional_fuel_interior_lighting_ip",
            "units": "MBtu",
            "value": 0.0
          },
          {
            "name": "additional_fuel_exterior_lighting_ip",
            "units": "MBtu",
            "value": 0.0
          },
          {
            "name": "additional_fuel_interior_equipment_ip",
            "units": "MBtu",
            "value": 0.0
          },
          {
            "name": "additional_fuel_exterior_equipment_ip",
            "units": "MBtu",
            "value": 0.0
          },
          {
            "name": "additional_fuel_fans_ip",
            "units": "MBtu",
            "value": 0.0
          },
          {
            "name": "additional_fuel_pumps_ip",
            "units": "MBtu",
            "value": 0.0
          },
          {
            "name": "additional_fuel_heat_rejection_ip",
            "units": "MBtu",
            "value": 0.0
          },
          {
            "name": "additional_fuel_humidification_ip",
            "units": "MBtu",
            "value": 0.0
          },
          {
            "name": "additional_fuel_heat_recovery_ip",
            "units": "MBtu",
            "value": 0.0
          },
          {
            "name": "additional_fuel_water_systems_ip",
            "units": "MBtu",
            "value": 0.0
          },
          {
            "name": "additional_fuel_refrigeration_ip",
            "units": "MBtu",
            "value": 0.0
          },
          {
            "name": "additional_fuel_generators_ip",
            "units": "MBtu",
            "value": 0.0
          },
          {
            "name": "additional_fuel_ip",
            "units": "MBtu",
            "value": 0.0
          },
          {
            "name": "district_cooling_heating_ip",
            "units": "MBtu",
            "value": 0.0
          },
          {
            "name": "district_cooling_cooling_ip",
            "units": "MBtu",
            "value": 0.0
          },
          {
            "name": "district_cooling_interior_lighting_ip",
            "units": "MBtu",
            "value": 0.0
          },
          {
            "name": "district_cooling_exterior_lighting_ip",
            "units": "MBtu",
            "value": 0.0
          },
          {
            "name": "district_cooling_interior_equipment_ip",
            "units": "MBtu",
            "value": 0.0
          },
          {
            "name": "district_cooling_exterior_equipment_ip",
            "units": "MBtu",
            "value": 0.0
          },
          {
            "name": "district_cooling_fans_ip",
            "units": "MBtu",
            "value": 0.0
          },
          {
            "name": "district_cooling_pumps_ip",
            "units": "MBtu",
            "value": 0.0
          },
          {
            "name": "district_cooling_heat_rejection_ip",
            "units": "MBtu",
            "value": 0.0
          },
          {
            "name": "district_cooling_humidification_ip",
            "units": "MBtu",
            "value": 0.0
          },
          {
            "name": "district_cooling_heat_recovery_ip",
            "units": "MBtu",
            "value": 0.0
          },
          {
            "name": "district_cooling_water_systems_ip",
            "units": "MBtu",
            "value": 0.0
          },
          {
            "name": "district_cooling_refrigeration_ip",
            "units": "MBtu",
            "value": 0.0
          },
          {
            "name": "district_cooling_generators_ip",
            "units": "MBtu",
            "value": 0.0
          },
          {
            "name": "district_cooling_ip",
            "units": "MBtu",
            "value": 0.0
          },
          {
            "name": "district_heating_heating_ip",
            "units": "MBtu",
            "value": 0.0
          },
          {
            "name": "district_heating_cooling_ip",
            "units": "MBtu",
            "value": 0.0
          },
          {
            "name": "district_heating_interior_lighting_ip",
            "units": "MBtu",
            "value": 0.0
          },
          {
            "name": "district_heating_exterior_lighting_ip",
            "units": "MBtu",
            "value": 0.0
          },
          {
            "name": "district_heating_interior_equipment_ip",
            "units": "MBtu",
            "value": 0.0
          },
          {
            "name": "district_heating_exterior_equipment_ip",
            "units": "MBtu",
            "value": 0.0
          },
          {
            "name": "district_heating_fans_ip",
            "units": "MBtu",
            "value": 0.0
          },
          {
            "name": "district_heating_pumps_ip",
            "units": "MBtu",
            "value": 0.0
          },
          {
            "name": "district_heating_heat_rejection_ip",
            "units": "MBtu",
            "value": 0.0
          },
          {
            "name": "district_heating_humidification_ip",
            "units": "MBtu",
            "value": 0.0
          },
          {
            "name": "district_heating_heat_recovery_ip",
            "units": "MBtu",
            "value": 0.0
          },
          {
            "name": "district_heating_water_systems_ip",
            "units": "MBtu",
            "value": 0.0
          },
          {
            "name": "district_heating_refrigeration_ip",
            "units": "MBtu",
            "value": 0.0
          },
          {
            "name": "district_heating_generators_ip",
            "units": "MBtu",
            "value": 0.0
          },
          {
            "name": "district_heating_ip",
            "units": "MBtu",
            "value": 0.0
          },
          {
            "name": "water_heating_ip",
            "units": "MBtu",
            "value": 0.0
          },
          {
            "name": "water_cooling_ip",
            "units": "MBtu",
            "value": 0.0
          },
          {
            "name": "water_interior_lighting_ip",
            "units": "MBtu",
            "value": 0.0
          },
          {
            "name": "water_exterior_lighting_ip",
            "units": "MBtu",
            "value": 0.0
          },
          {
            "name": "water_interior_equipment_ip",
            "units": "MBtu",
            "value": 0.0
          },
          {
            "name": "water_exterior_equipment_ip",
            "units": "MBtu",
            "value": 0.0
          },
          {
            "name": "water_fans_ip",
            "units": "MBtu",
            "value": 0.0
          },
          {
            "name": "water_pumps_ip",
            "units": "MBtu",
            "value": 0.0
          },
          {
            "name": "water_heat_rejection_ip",
            "units": "MBtu",
            "value": 0.0
          },
          {
            "name": "water_humidification_ip",
            "units": "MBtu",
            "value": 0.0
          },
          {
            "name": "water_heat_recovery_ip",
            "units": "MBtu",
            "value": 0.0
          },
          {
            "name": "water_water_systems_ip",
            "units": "MBtu",
            "value": 0.0
          },
          {
            "name": "water_refrigeration_ip",
            "units": "MBtu",
            "value": 0.0
          },
          {
            "name": "water_generators_ip",
            "units": "MBtu",
            "value": 0.0
          },
          {
            "name": "water_ip",
            "units": "MBtu",
            "value": 0.0
          },
          {
            "name": "ashrae_189_1_2009_ext_roof_iead_climate_zone_2_5",
            "units": "ft^2",
            "value": 5756.0
          },
          {
            "name": "ashrae_189_1_2009_ext_wall_steel_frame_climate_zone_4_8",
            "units": "ft^2",
            "value": 6277.51
          },
          {
            "name": "ashrae_189_1_2009_ext_window_climate_zone_alt_res_4_5",
            "units": "ft^2",
            "value": 4185.01
          },
          {
            "name": "gross_window_wall_ratio",
            "units": "%",
            "value": 40.0
          },
          {
            "name": "gross_window_wall_ratio_conditioned",
            "units": "%",
            "value": 40.0
          },
          {
            "name": "skylight_roof_ratio",
            "units": "%",
            "value": 0.0
          },
          {
            "name": "space_type_ashrae_189_1_2009_climate_zone_1_3_mid_rise_apartment_apartment",
            "units": "ft^2",
            "value": 290.63
          },
          {
            "name": "space_type_ashrae_189_1_2009_climate_zone_4_8_mid_rise_apartment_apartment",
            "units": "ft^2",
            "value": 10720.85
          },
          {
            "name": "space_type_ashrae_189_1_2009_climate_zone_4_8_mid_rise_apartment_corridor",
            "units": "ft^2",
            "value": 4028.39
          },
          {
            "name": "space_type_ashrae_189_1_2009_climate_zone_4_8_mid_rise_apartment_office",
            "units": "ft^2",
            "value": 1743.75
          },
          {
            "name": "space_type_empty_space_type",
            "units": "ft^2",
            "value": 484.38
          },
          {
            "name": "exterior_lighting_total_power",
            "units": "W",
            "value": 0.0
          },
          {
            "name": "exterior_lighting_total_consumption",
            "units": "kWh",
            "value": 220755.56
          },
          {
            "name": "inflation_approach",
            "value": "Constant Dollar"
          },
          {
            "name": "analysis_length",
            "units": "yrs",
            "value": 25
          },
          {
            "name": "annual_peak_electric_demand",
            "units": "kW",
            "value": 27.35
          },
          {
            "name": "first_year_capital_cost",
            "units": "$",
            "value": 0.0
          },
          {
            "name": "annual_utility_cost",
            "units": "$",
            "value": 0.0
          },
          {
            "name": "total_lifecycle_cost",
            "units": "$",
            "value": 0.0
          }
        ],
        "step_warnings": [
          "Plant Loops Detail section failed and was skipped because: undefined local variable or method `compressorMotorEfficiency' for #<OpenStudio::Model::ChillerElectricEIR:0x000055bde50da7e8>. Detail on error follows.",
          "/home/julien/Software/Others/OpenStudio-resources/measures/openstudio_results/measure.rb:237:in `eval'\n/home/julien/Software/Others/OpenStudio-resources/measures/openstudio_results/resources/Siz.HVACComponent.rb:94:in `performanceCharacteristics'\n/home/julien/Software/Others/OpenStudio-resources/measures/openstudio_results/resources/os_lib_reporting.rb:761:in `general_component_summary_logic'\n/home/julien/Software/Others/OpenStudio-resources/measures/openstudio_results/resources/os_lib_reporting.rb:1112:in `plant_loop_component_summary_logic'\n/home/julien/Software/Others/OpenStudio-resources/measures/openstudio_results/resources/os_lib_reporting.rb:1173:in `block (2 levels) in plant_loops_detail_section'\n/home/julien/Software/Others/OpenStudio-resources/measures/openstudio_results/resources/os_lib_reporting.rb:1154:in `each'\n/home/julien/Software/Others/OpenStudio-resources/measures/openstudio_results/resources/os_lib_reporting.rb:1154:in `block in plant_loops_detail_section'\n/home/julien/Software/Others/OpenStudio-resources/measures/openstudio_results/resources/os_lib_reporting.rb:1144:in `each'\n/home/julien/Software/Others/OpenStudio-resources/measures/openstudio_results/resources/os_lib_reporting.rb:1144:in `plant_loops_detail_section'\n(eval):1:in `block in run'\n/home/julien/Software/Others/OpenStudio-resources/measures/openstudio_results/measure.rb:237:in `eval'\n/home/julien/Software/Others/OpenStudio-resources/measures/openstudio_results/measure.rb:237:in `block in run'\n/home/julien/Software/Others/OpenStudio-resources/measures/openstudio_results/measure.rb:233:in `each'\n/home/julien/Software/Others/OpenStudio-resources/measures/openstudio_results/measure.rb:233:in `run'\n:/ruby/2.5.0/gems/openstudio-workflow-2.0.0/lib/openstudio/workflow/util/measure.rb:514:in `apply_measure'\n:/ruby/2.5.0/gems/openstudio-workflow-2.0.0/lib/openstudio/workflow/util/measure.rb:109:in `block in apply_measures'\n:/ruby/2.5.0/gems/openstudio-workflow-2.0.0/lib/openstudio/workflow/util/measure.rb:67:in `each_index'\n:/ruby/2.5.0/gems/openstudio-workflow-2.0.0/lib/openstudio/workflow/util/measure.rb:67:in `apply_measures'\n:/ruby/2.5.0/gems/openstudio-workflow-2.0.0/lib/openstudio/workflow/jobs/run_reporting_measures.rb:105:in `perform'\n:/ruby/2.5.0/gems/openstudio-workflow-2.0.0/lib/openstudio/workflow/run.rb:292:in `step'\n:/ruby/2.5.0/gems/openstudio-workflow-2.0.0/lib/openstudio/workflow/run.rb:234:in `run'\n:/openstudio_cli.rb:960:in `execute'\n:/openstudio_cli.rb:750:in `execute'\n:/openstudio_cli.rb:1744:in `<main>'\neval:174:in `eval'\neval:174:in `require_embedded_absolute'\neval:160:in `block in require_embedded'\neval:154:in `each'\neval:154:in `require_embedded'\neval:113:in `require'\neval:3:in `<main>'"
        ]
      }
    }
  ],
  "weather_file": "../../weatherdata/USA_IL_Chicago-OHare.Intl.AP.725300_TMY3.epw"
}