{
  "completed_status": "Success",
  "current_step": 1,
  "eplusout_err": "Program Version,EnergyPlus, Version 8.8.0-7c3bbe4830, IDD_Version 8.8.0\n   ************* Beginning Zone Sizing Calculations\n   ** Warning ** ProcessScheduleInput: Schedule:Constant=\"ALWAYS OFF DISCRETE\", Blank Schedule Type Limits Name input -- will not be validated.\n   ** Warning ** ProcessScheduleInput: Schedule:Constant=\"ALWAYS ON CONTINUOUS\", Blank Schedule Type Limits Name input -- will not be validated.\n   ** Warning ** GetHTSurfaceData: Surfaces with interface to Ground found but no \"Ground Temperatures\" were input.\n   **   ~~~   ** Found first in surface=SURFACE 71\n   **   ~~~   ** Defaults, constant throughout the year of (18.0) will be used.\n   ** Warning ** CheckUsedConstructions: There are 5 nominally unused constructions in input.\n   **   ~~~   ** For explicit details on each unused construction, use Output:Diagnostics,DisplayExtraWarnings;\n   ** Warning ** GetInternalHeatGains: People=\"ASHRAE_189.1-2009_CLIMATEZONE 1-3_MID-RISEAPARTMENT_APARTMENT_PEOPINST\", Activity Level Schedule Name values\n   **   ~~~   ** fall outside typical range [70,1000] W/person for Thermal Comfort Reporting.\n   **   ~~~   ** Odd comfort values may result; Schedule=\"MID-RISEAPARTMENT_ACTIVITY\".\n   **   ~~~   ** Entered min/max range=[0.0,120.0] W/person.\n   ** Warning ** GetInternalHeatGains: People=\"ASHRAE_189.1-2009_CLIMATEZONE 4-8_MID-RISEAPARTMENT_APARTMENT_PEOPINST\", Activity Level Schedule Name values\n   **   ~~~   ** fall outside typical range [70,1000] W/person for Thermal Comfort Reporting.\n   **   ~~~   ** Odd comfort values may result; Schedule=\"MID-RISEAPARTMENT_ACTIVITY\".\n   **   ~~~   ** Entered min/max range=[0.0,120.0] W/person.\n   ** Warning ** GetInternalHeatGains: People=\"ASHRAE_189.1-2009_CLIMATEZONE 4-8_MID-RISEAPARTMENT_CORRIDOR_PEOPINST\", Activity Level Schedule Name values\n   **   ~~~   ** fall outside typical range [70,1000] W/person for Thermal Comfort Reporting.\n   **   ~~~   ** Odd comfort values may result; Schedule=\"MID-RISEAPARTMENT_ACTIVITY\".\n   **   ~~~   ** Entered min/max range=[0.0,120.0] W/person.\n   ** Warning ** GetInternalHeatGains: People=\"ASHRAE_189.1-2009_CLIMATEZONE 4-8_MID-RISEAPARTMENT_OFFICE_PEOPINST\", Activity Level Schedule Name values\n   **   ~~~   ** fall outside typical range [70,1000] W/person for Thermal Comfort Reporting.\n   **   ~~~   ** Odd comfort values may result; Schedule=\"MID-RISEAPARTMENT_ACTIVITY\".\n   **   ~~~   ** Entered min/max range=[0.0,120.0] W/person.\n   ************* Beginning System Sizing Calculations\n   ** Warning ** Since Zone Minimum Air Flow Input Method = CONSTANT, input for Fixed Minimum Air Flow Rate will be ignored.\n   **   ~~~   ** Occurs in AirTerminal:SingleDuct:VAV:Reheat = AIR TERMINAL SINGLE DUCT VAV REHEAT 39\n   ** Warning ** Since Zone Minimum Air Flow Input Method = CONSTANT, input for Fixed Minimum Air Flow Rate will be ignored.\n   **   ~~~   ** Occurs in AirTerminal:SingleDuct:VAV:Reheat = AIR TERMINAL SINGLE DUCT VAV REHEAT 38\n   ** Warning ** Since Zone Minimum Air Flow Input Method = CONSTANT, input for Fixed Minimum Air Flow Rate will be ignored.\n   **   ~~~   ** Occurs in AirTerminal:SingleDuct:VAV:Reheat = AIR TERMINAL SINGLE DUCT VAV REHEAT 24\n   ** Warning ** Since Zone Minimum Air Flow Input Method = CONSTANT, input for Fixed Minimum Air Flow Rate will be ignored.\n   **   ~~~   ** Occurs in AirTerminal:SingleDuct:VAV:Reheat = AIR TERMINAL SINGLE DUCT VAV REHEAT 36\n   ** Warning ** Since Zone Minimum Air Flow Input Method = CONSTANT, input for Fixed Minimum Air Flow Rate will be ignored.\n   **   ~~~   ** Occurs in AirTerminal:SingleDuct:VAV:Reheat = AIR TERMINAL SINGLE DUCT VAV REHEAT 31\n   ** Warning ** Since Zone Minimum Air Flow Input Method = CONSTANT, input for Fixed Minimum Air Flow Rate will be ignored.\n   **   ~~~   ** Occurs in AirTerminal:SingleDuct:VAV:Reheat = AIR TERMINAL SINGLE DUCT VAV REHEAT 30\n   ** Warning ** Since Zone Minimum Air Flow Input Method = CONSTANT, input for Fixed Minimum Air Flow Rate will be ignored.\n   **   ~~~   ** Occurs in AirTerminal:SingleDuct:VAV:Reheat = AIR TERMINAL SINGLE DUCT VAV REHEAT 37\n   ** Warning ** Since Zone Minimum Air Flow Input Method = CONSTANT, input for Fixed Minimum Air Flow Rate will be ignored.\n   **   ~~~   ** Occurs in AirTerminal:SingleDuct:VAV:Reheat = AIR TERMINAL SINGLE DUCT VAV REHEAT 27\n   ** Warning ** Since Zone Minimum Air Flow Input Method = CONSTANT, input for Fixed Minimum Air Flow Rate will be ignored.\n   **   ~~~   ** Occurs in AirTerminal:SingleDuct:VAV:Reheat = AIR TERMINAL SINGLE DUCT VAV REHEAT 25\n   ** Warning ** Since Zone Minimum Air Flow Input Method = CONSTANT, input for Fixed Minimum Air Flow Rate will be ignored.\n   **   ~~~   ** Occurs in AirTerminal:SingleDuct:VAV:Reheat = AIR TERMINAL SINGLE DUCT VAV REHEAT 28\n   ** Warning ** Since Zone Minimum Air Flow Input Method = CONSTANT, input for Fixed Minimum Air Flow Rate will be ignored.\n   **   ~~~   ** Occurs in AirTerminal:SingleDuct:VAV:Reheat = AIR TERMINAL SINGLE DUCT VAV REHEAT 32\n   ** Warning ** Since Zone Minimum Air Flow Input Method = CONSTANT, input for Fixed Minimum Air Flow Rate will be ignored.\n   **   ~~~   ** Occurs in AirTerminal:SingleDuct:VAV:Reheat = AIR TERMINAL SINGLE DUCT VAV REHEAT 26\n   ** Warning ** Since Zone Minimum Air Flow Input Method = CONSTANT, input for Fixed Minimum Air Flow Rate will be ignored.\n   **   ~~~   ** Occurs in AirTerminal:SingleDuct:VAV:Reheat = AIR TERMINAL SINGLE DUCT VAV REHEAT 34\n   ** Warning ** Since Zone Minimum Air Flow Input Method = CONSTANT, input for Fixed Minimum Air Flow Rate will be ignored.\n   **   ~~~   ** Occurs in AirTerminal:SingleDuct:VAV:Reheat = AIR TERMINAL SINGLE DUCT VAV REHEAT 33\n   ** Warning ** Since Zone Minimum Air Flow Input Method = CONSTANT, input for Fixed Minimum Air Flow Rate will be ignored.\n   **   ~~~   ** Occurs in AirTerminal:SingleDuct:VAV:Reheat = AIR TERMINAL SINGLE DUCT VAV REHEAT 42\n   ** Warning ** Since Zone Minimum Air Flow Input Method = CONSTANT, input for Fixed Minimum Air Flow Rate will be ignored.\n   **   ~~~   ** Occurs in AirTerminal:SingleDuct:VAV:Reheat = AIR TERMINAL SINGLE DUCT VAV REHEAT 54\n   ** Warning ** Since Zone Minimum Air Flow Input Method = CONSTANT, input for Fixed Minimum Air Flow Rate will be ignored.\n   **   ~~~   ** Occurs in AirTerminal:SingleDuct:VAV:Reheat = AIR TERMINAL SINGLE DUCT VAV REHEAT 47\n   ** Warning ** Since Zone Minimum Air Flow Input Method = CONSTANT, input for Fixed Minimum Air Flow Rate will be ignored.\n   **   ~~~   ** Occurs in AirTerminal:SingleDuct:VAV:Reheat = AIR TERMINAL SINGLE DUCT VAV REHEAT 53\n   ** Warning ** Since Zone Minimum Air Flow Input Method = CONSTANT, input for Fixed Minimum Air Flow Rate will be ignored.\n   **   ~~~   ** Occurs in AirTerminal:SingleDuct:VAV:Reheat = AIR TERMINAL SINGLE DUCT VAV REHEAT 49\n   ** Warning ** Since Zone Minimum Air Flow Input Method = CONSTANT, input for Fixed Minimum Air Flow Rate will be ignored.\n   **   ~~~   ** Occurs in AirTerminal:SingleDuct:VAV:Reheat = AIR TERMINAL SINGLE DUCT VAV REHEAT 45\n   ** Warning ** Since Zone Minimum Air Flow Input Method = CONSTANT, input for Fixed Minimum Air Flow Rate will be ignored.\n   **   ~~~   ** Occurs in AirTerminal:SingleDuct:VAV:Reheat = AIR TERMINAL SINGLE DUCT VAV REHEAT 57\n   ** Warning ** Since Zone Minimum Air Flow Input Method = CONSTANT, input for Fixed Minimum Air Flow Rate will be ignored.\n   **   ~~~   ** Occurs in AirTerminal:SingleDuct:VAV:Reheat = AIR TERMINAL SINGLE DUCT VAV REHEAT 56\n   ** Warning ** Since Zone Minimum Air Flow Input Method = CONSTANT, input for Fixed Minimum Air Flow Rate will be ignored.\n   **   ~~~   ** Occurs in AirTerminal:SingleDuct:VAV:Reheat = AIR TERMINAL SINGLE DUCT VAV REHEAT 44\n   ** Warning ** Since Zone Minimum Air Flow Input Method = CONSTANT, input for Fixed Minimum Air Flow Rate will be ignored.\n   **   ~~~   ** Occurs in AirTerminal:SingleDuct:VAV:Reheat = AIR TERMINAL SINGLE DUCT VAV REHEAT 46\n   ** Warning ** Since Zone Minimum Air Flow Input Method = CONSTANT, input for Fixed Minimum Air Flow Rate will be ignored.\n   **   ~~~   ** Occurs in AirTerminal:SingleDuct:VAV:Reheat = AIR TERMINAL SINGLE DUCT VAV REHEAT 58\n   ** Warning ** Since Zone Minimum Air Flow Input Method = CONSTANT, input for Fixed Minimum Air Flow Rate will be ignored.\n   **   ~~~   ** Occurs in AirTerminal:SingleDuct:VAV:Reheat = AIR TERMINAL SINGLE DUCT VAV REHEAT 48\n   ** Warning ** Since Zone Minimum Air Flow Input Method = CONSTANT, input for Fixed Minimum Air Flow Rate will be ignored.\n   **   ~~~   ** Occurs in AirTerminal:SingleDuct:VAV:Reheat = AIR TERMINAL SINGLE DUCT VAV REHEAT 43\n   ** Warning ** Since Zone Minimum Air Flow Input Method = CONSTANT, input for Fixed Minimum Air Flow Rate will be ignored.\n   **   ~~~   ** Occurs in AirTerminal:SingleDuct:VAV:Reheat = AIR TERMINAL SINGLE DUCT VAV REHEAT 52\n   ** Warning ** Since Zone Minimum Air Flow Input Method = CONSTANT, input for Fixed Minimum Air Flow Rate will be ignored.\n   **   ~~~   ** Occurs in AirTerminal:SingleDuct:VAV:Reheat = AIR TERMINAL SINGLE DUCT VAV REHEAT 50\n   ** Warning ** Since Zone Minimum Air Flow Input Method = CONSTANT, input for Fixed Minimum Air Flow Rate will be ignored.\n   **   ~~~   ** Occurs in AirTerminal:SingleDuct:VAV:Reheat = AIR TERMINAL SINGLE DUCT VAV REHEAT 5\n   ** Warning ** Since Zone Minimum Air Flow Input Method = CONSTANT, input for Fixed Minimum Air Flow Rate will be ignored.\n   **   ~~~   ** Occurs in AirTerminal:SingleDuct:VAV:Reheat = AIR TERMINAL SINGLE DUCT VAV REHEAT 18\n   ** Warning ** Since Zone Minimum Air Flow Input Method = CONSTANT, input for Fixed Minimum Air Flow Rate will be ignored.\n   **   ~~~   ** Occurs in AirTerminal:SingleDuct:VAV:Reheat = AIR TERMINAL SINGLE DUCT VAV REHEAT 19\n   ** Warning ** Since Zone Minimum Air Flow Input Method = CONSTANT, input for Fixed Minimum Air Flow Rate will be ignored.\n   **   ~~~   ** Occurs in AirTerminal:SingleDuct:VAV:Reheat = AIR TERMINAL SINGLE DUCT VAV REHEAT 8\n   ** Warning ** Since Zone Minimum Air Flow Input Method = CONSTANT, input for Fixed Minimum Air Flow Rate will be ignored.\n   **   ~~~   ** Occurs in AirTerminal:SingleDuct:VAV:Reheat = AIR TERMINAL SINGLE DUCT VAV REHEAT 13\n   ** Warning ** Since Zone Minimum Air Flow Input Method = CONSTANT, input for Fixed Minimum Air Flow Rate will be ignored.\n   **   ~~~   ** Occurs in AirTerminal:SingleDuct:VAV:Reheat = AIR TERMINAL SINGLE DUCT VAV REHEAT 3\n   ** Warning ** Since Zone Minimum Air Flow Input Method = CONSTANT, input for Fixed Minimum Air Flow Rate will be ignored.\n   **   ~~~   ** Occurs in AirTerminal:SingleDuct:VAV:Reheat = AIR TERMINAL SINGLE DUCT VAV REHEAT 11\n   ** Warning ** Since Zone Minimum Air Flow Input Method = CONSTANT, input for Fixed Minimum Air Flow Rate will be ignored.\n   **   ~~~   ** Occurs in AirTerminal:SingleDuct:VAV:Reheat = AIR TERMINAL SINGLE DUCT VAV REHEAT 20\n   ** Warning ** Since Zone Minimum Air Flow Input Method = CONSTANT, input for Fixed Minimum Air Flow Rate will be ignored.\n   **   ~~~   ** Occurs in AirTerminal:SingleDuct:VAV:Reheat = AIR TERMINAL SINGLE DUCT VAV REHEAT 16\n   ** Warning ** Since Zone Minimum Air Flow Input Method = CONSTANT, input for Fixed Minimum Air Flow Rate will be ignored.\n   **   ~~~   ** Occurs in AirTerminal:SingleDuct:VAV:Reheat = AIR TERMINAL SINGLE DUCT VAV REHEAT 9\n   ** Warning ** Since Zone Minimum Air Flow Input Method = CONSTANT, input for Fixed Minimum Air Flow Rate will be ignored.\n   **   ~~~   ** Occurs in AirTerminal:SingleDuct:VAV:Reheat = AIR TERMINAL SINGLE DUCT VAV REHEAT 7\n   ** Warning ** Since Zone Minimum Air Flow Input Method = CONSTANT, input for Fixed Minimum Air Flow Rate will be ignored.\n   **   ~~~   ** Occurs in AirTerminal:SingleDuct:VAV:Reheat = AIR TERMINAL SINGLE DUCT VAV REHEAT 15\n   ** Warning ** Since Zone Minimum Air Flow Input Method = CONSTANT, input for Fixed Minimum Air Flow Rate will be ignored.\n   **   ~~~   ** Occurs in AirTerminal:SingleDuct:VAV:Reheat = AIR TERMINAL SINGLE DUCT VAV REHEAT 12\n   ** Warning ** Since Zone Minimum Air Flow Input Method = CONSTANT, input for Fixed Minimum Air Flow Rate will be ignored.\n   **   ~~~   ** Occurs in AirTerminal:SingleDuct:VAV:Reheat = AIR TERMINAL SINGLE DUCT VAV REHEAT 17\n   ** Warning ** Since Zone Minimum Air Flow Input Method = CONSTANT, input for Fixed Minimum Air Flow Rate will be ignored.\n   **   ~~~   ** Occurs in AirTerminal:SingleDuct:VAV:Reheat = AIR TERMINAL SINGLE DUCT VAV REHEAT 10\n   ** Warning ** Since Zone Minimum Air Flow Input Method = CONSTANT, input for Fixed Minimum Air Flow Rate will be ignored.\n   **   ~~~   ** Occurs in AirTerminal:SingleDuct:VAV:Reheat = AIR TERMINAL SINGLE DUCT VAV REHEAT 29\n   ** Warning ** Since Zone Minimum Air Flow Input Method = CONSTANT, input for Fixed Minimum Air Flow Rate will be ignored.\n   **   ~~~   ** Occurs in AirTerminal:SingleDuct:VAV:Reheat = AIR TERMINAL SINGLE DUCT VAV REHEAT 21\n   ** Warning ** Since Zone Minimum Air Flow Input Method = CONSTANT, input for Fixed Minimum Air Flow Rate will be ignored.\n   **   ~~~   ** Occurs in AirTerminal:SingleDuct:VAV:Reheat = AIR TERMINAL SINGLE DUCT VAV REHEAT 41\n   ** Warning ** Since Zone Minimum Air Flow Input Method = CONSTANT, input for Fixed Minimum Air Flow Rate will be ignored.\n   **   ~~~   ** Occurs in AirTerminal:SingleDuct:VAV:Reheat = AIR TERMINAL SINGLE DUCT VAV REHEAT 14\n   ** Warning ** Since Zone Minimum Air Flow Input Method = CONSTANT, input for Fixed Minimum Air Flow Rate will be ignored.\n   **   ~~~   ** Occurs in AirTerminal:SingleDuct:VAV:Reheat = AIR TERMINAL SINGLE DUCT VAV REHEAT 22\n   ** Warning ** Since Zone Minimum Air Flow Input Method = CONSTANT, input for Fixed Minimum Air Flow Rate will be ignored.\n   **   ~~~   ** Occurs in AirTerminal:SingleDuct:VAV:Reheat = AIR TERMINAL SINGLE DUCT VAV REHEAT 40\n   ** Warning ** Since Zone Minimum Air Flow Input Method = CONSTANT, input for Fixed Minimum Air Flow Rate will be ignored.\n   **   ~~~   ** Occurs in AirTerminal:SingleDuct:VAV:Reheat = AIR TERMINAL SINGLE DUCT VAV REHEAT 6\n   ** Warning ** Since Zone Minimum Air Flow Input Method = CONSTANT, input for Fixed Minimum Air Flow Rate will be ignored.\n   **   ~~~   ** Occurs in AirTerminal:SingleDuct:VAV:Reheat = AIR TERMINAL SINGLE DUCT VAV REHEAT 23\n   ** Warning ** Since Zone Minimum Air Flow Input Method = CONSTANT, input for Fixed Minimum Air Flow Rate will be ignored.\n   **   ~~~   ** Occurs in AirTerminal:SingleDuct:VAV:Reheat = AIR TERMINAL SINGLE DUCT VAV REHEAT 35\n   ** Warning ** Since Zone Minimum Air Flow Input Method = CONSTANT, input for Fixed Minimum Air Flow Rate will be ignored.\n   **   ~~~   ** Occurs in AirTerminal:SingleDuct:VAV:Reheat = AIR TERMINAL SINGLE DUCT VAV REHEAT 51\n   ** Warning ** Since Zone Minimum Air Flow Input Method = CONSTANT, input for Fixed Minimum Air Flow Rate will be ignored.\n   **   ~~~   ** Occurs in AirTerminal:SingleDuct:VAV:Reheat = AIR TERMINAL SINGLE DUCT VAV REHEAT 55\n   ** Warning ** Since Zone Minimum Air Flow Input Method = CONSTANT, input for Fixed Minimum Air Flow Rate will be ignored.\n   **   ~~~   ** Occurs in AirTerminal:SingleDuct:VAV:Reheat = AIR TERMINAL SINGLE DUCT VAV REHEAT 2\n   ** Warning ** Since Zone Minimum Air Flow Input Method = CONSTANT, input for Fixed Minimum Air Flow Rate will be ignored.\n   **   ~~~   ** Occurs in AirTerminal:SingleDuct:VAV:Reheat = AIR TERMINAL SINGLE DUCT VAV REHEAT 4\n   ************* Beginning Plant Sizing Calculations\n   ** Warning ** In calculating the design coil UA for Coil:Cooling:Water COIL COOLING WATER 1\n   **   ~~~   ** no apparatus dew-point can be found for the initial entering and leaving conditions;\n   **   ~~~   ** the coil outlet design conditions will be changed to correct the problem.\n   **   ~~~   ** The initial design conditions are: Tair,in = 29.3152\n   **   ~~~   **                                    Wair,in = 1.496114E-002\n   **   ~~~   **                                    Twater,in = 7.2200\n   **   ~~~   **                                    Tair,out = 12.8000\n   **   ~~~   **                                    Wair,out = 8.478624E-003\n   **   ~~~   ** The revised design conditions are: Tair,out = 12.7997\n   **   ~~~   **                                    Wair,out = 8.478742E-003\n   ** Warning ** In calculating the design coil UA for Coil:Cooling:Water COIL COOLING WATER 3\n   **   ~~~   ** no apparatus dew-point can be found for the initial entering and leaving conditions;\n   **   ~~~   ** the coil outlet design conditions will be changed to correct the problem.\n   **   ~~~   ** The initial design conditions are: Tair,in = 29.8325\n   **   ~~~   **                                    Wair,in = 1.496113E-002\n   **   ~~~   **                                    Twater,in = 7.2200\n   **   ~~~   **                                    Tair,out = 12.8000\n   **   ~~~   **                                    Wair,out = 8.478624E-003\n   **   ~~~   ** The revised design conditions are: Tair,out = 12.7997\n   **   ~~~   **                                    Wair,out = 8.478742E-003\n   ** Warning ** GetElectricEIRChillerInput: Chiller:Electric:EIR=\"CHILLER ELECTRIC EIR 1\"\n   **   ~~~   ** Energy input ratio as a function of temperature curve output is not equal to 1.0 (+ or - 10%) at reference conditions.\n   **   ~~~   ** Curve output at reference conditions = 0.861\n   ** Warning ** GetElectricEIRChillerInput: Chiller:Electric:EIR=\"CHILLER ELECTRIC EIR 2\"\n   **   ~~~   ** Energy input ratio as a function of temperature curve output is not equal to 1.0 (+ or - 10%) at reference conditions.\n   **   ~~~   ** Curve output at reference conditions = 0.861\n   ** Warning ** GetElectricEIRChillerInput: Chiller:Electric:EIR=\"CHILLER ELECTRIC EIR 3\"\n   **   ~~~   ** Energy input ratio as a function of temperature curve output is not equal to 1.0 (+ or - 10%) at reference conditions.\n   **   ~~~   ** Curve output at reference conditions = 0.861\n   ** Warning ** SetpointManager:MixedAir=\"SETPOINT MANAGER MIXED AIR 12\"\n   **   ~~~   ** ...setpoint node conflicts with another setpoint manager.\n   **   ~~~   ** ...conflicting setpoint manager = SetpointManager:MixedAir:\"NODE 200 OS DEFAULT SPM\"\n   **   ~~~   ** ...conflicting node name = NODE 200\n   **   ~~~   ** ...control type variable = Temperature\n   ** Warning ** SetpointManager:MixedAir=\"SETPOINT MANAGER MIXED AIR 11\"\n   **   ~~~   ** ...setpoint node conflicts with another setpoint manager.\n   **   ~~~   ** ...conflicting setpoint manager = SetpointManager:MixedAir:\"NODE 201 OS DEFAULT SPM\"\n   **   ~~~   ** ...conflicting node name = NODE 201\n   **   ~~~   ** ...control type variable = Temperature\n   ** Warning ** SetpointManager:MixedAir=\"SETPOINT MANAGER MIXED AIR 10\"\n   **   ~~~   ** ...setpoint node conflicts with another setpoint manager.\n   **   ~~~   ** ...conflicting setpoint manager = SetpointManager:MixedAir:\"NODE 202 OS DEFAULT SPM\"\n   **   ~~~   ** ...conflicting node name = NODE 202\n   **   ~~~   ** ...control type variable = Temperature\n   ** Warning ** SetpointManager:MixedAir=\"SETPOINT MANAGER MIXED AIR 15\"\n   **   ~~~   ** ...setpoint node conflicts with another setpoint manager.\n   **   ~~~   ** ...conflicting setpoint manager = SetpointManager:MixedAir:\"NODE 352 OS DEFAULT SPM\"\n   **   ~~~   ** ...conflicting node name = NODE 352\n   **   ~~~   ** ...control type variable = Temperature\n   ** Warning ** SetpointManager:MixedAir=\"SETPOINT MANAGER MIXED AIR 14\"\n   **   ~~~   ** ...setpoint node conflicts with another setpoint manager.\n   **   ~~~   ** ...conflicting setpoint manager = SetpointManager:MixedAir:\"NODE 353 OS DEFAULT SPM\"\n   **   ~~~   ** ...conflicting node name = NODE 353\n   **   ~~~   ** ...control type variable = Temperature\n   ** Warning ** SetpointManager:MixedAir=\"SETPOINT MANAGER MIXED AIR 13\"\n   **   ~~~   ** ...setpoint node conflicts with another setpoint manager.\n   **   ~~~   ** ...conflicting setpoint manager = SetpointManager:MixedAir:\"NODE 354 OS DEFAULT SPM\"\n   **   ~~~   ** ...conflicting node name = NODE 354\n   **   ~~~   ** ...control type variable = Temperature\n   ** Warning ** SetpointManager:MixedAir=\"SETPOINT MANAGER MIXED AIR 18\"\n   **   ~~~   ** ...setpoint node conflicts with another setpoint manager.\n   **   ~~~   ** ...conflicting setpoint manager = SetpointManager:MixedAir:\"NODE 504 OS DEFAULT SPM\"\n   **   ~~~   ** ...conflicting node name = NODE 504\n   **   ~~~   ** ...control type variable = Temperature\n   ** Warning ** SetpointManager:MixedAir=\"SETPOINT MANAGER MIXED AIR 17\"\n   **   ~~~   ** ...setpoint node conflicts with another setpoint manager.\n   **   ~~~   ** ...conflicting setpoint manager = SetpointManager:MixedAir:\"NODE 505 OS DEFAULT SPM\"\n   **   ~~~   ** ...conflicting node name = NODE 505\n   **   ~~~   ** ...control type variable = Temperature\n   ** Warning ** SetpointManager:MixedAir=\"SETPOINT MANAGER MIXED AIR 16\"\n   **   ~~~   ** ...setpoint node conflicts with another setpoint manager.\n   **   ~~~   ** ...conflicting setpoint manager = SetpointManager:MixedAir:\"NODE 506 OS DEFAULT SPM\"\n   **   ~~~   ** ...conflicting node name = NODE 506\n   **   ~~~   ** ...control type variable = Temperature\n   ** Warning ** Output:Meter: invalid Key Name=\"DISTRICTCOOLING:FACILITY\" - not found.\n   ** Warning ** Output:Meter: invalid Key Name=\"DISTRICTHEATING:FACILITY\" - not found.\n   ** Warning ** Output:Meter:MeterFileOnly requested for \"Electricity:Facility\" (TimeStep), already on \"Output:Meter\". Will report to both eplusout.eso and eplusout.mtr\n   ************* Testing Individual Branch Integrity\n   ************* All Branches passed integrity testing\n   ************* Testing Individual Supply Air Path Integrity\n   ** Severe  ** AirLoopHVAC:ZoneSplitter=\"AIR LOOP HVAC ZONE SPLITTER 1\", not found on any AirLoopHVAC:SupplyPath.\n   ** Severe  ** AirLoopHVAC:ZoneSplitter=\"AIR LOOP HVAC ZONE SPLITTER 2\", not found on any AirLoopHVAC:SupplyPath.\n   ** Severe  ** AirLoopHVAC:ZoneSplitter=\"AIR LOOP HVAC ZONE SPLITTER 3\", not found on any AirLoopHVAC:SupplyPath.\n   ************* All Supply Air Paths passed integrity testing\n   ************* Testing Individual Return Air Path Integrity\n   ** Severe  ** AirLoopHVAC:ZoneMixer=\"AIR LOOP HVAC ZONE MIXER 1\", not found on any AirLoopHVAC:ReturnPath, AirTerminal:SingleDuct:SeriesPIU:Reheat,\n   **   ~~~   ** AirTerminal:SingleDuct:ParallelPIU:Reheat or AirTerminal:SingleDuct:ConstantVolume:FourPipeInduction.\n   ** Severe  ** AirLoopHVAC:ZoneMixer=\"AIR LOOP HVAC ZONE MIXER 2\", not found on any AirLoopHVAC:ReturnPath, AirTerminal:SingleDuct:SeriesPIU:Reheat,\n   **   ~~~   ** AirTerminal:SingleDuct:ParallelPIU:Reheat or AirTerminal:SingleDuct:ConstantVolume:FourPipeInduction.\n   ** Severe  ** AirLoopHVAC:ZoneMixer=\"AIR LOOP HVAC ZONE MIXER 3\", not found on any AirLoopHVAC:ReturnPath, AirTerminal:SingleDuct:SeriesPIU:Reheat,\n   **   ~~~   ** AirTerminal:SingleDuct:ParallelPIU:Reheat or AirTerminal:SingleDuct:ConstantVolume:FourPipeInduction.\n   ************* All Return Air Paths passed integrity testing\n   ** Severe  ** Node Connection Error, Node=\"NODE 60\", Inlet node did not find an appropriate matching \"outlet\" node.\n   **   ~~~   ** If this is an outdoor air inlet node, it must be listed in an OutdoorAir:Node or OutdoorAir:NodeList object.\n   **   ~~~   ** Reference Object=AIRLOOPHVAC:ZONESPLITTER, Name=AIR LOOP HVAC ZONE SPLITTER 1\n   ** Severe  ** Node Connection Error, Node=\"NODE 97\", Inlet node did not find an appropriate matching \"outlet\" node.\n   **   ~~~   ** If this is an outdoor air inlet node, it must be listed in an OutdoorAir:Node or OutdoorAir:NodeList object.\n   **   ~~~   ** Reference Object=AIRLOOPHVAC:ZONESPLITTER, Name=AIR LOOP HVAC ZONE SPLITTER 2\n   ** Severe  ** Node Connection Error, Node=\"NODE 136\", Inlet node did not find an appropriate matching \"outlet\" node.\n   **   ~~~   ** If this is an outdoor air inlet node, it must be listed in an OutdoorAir:Node or OutdoorAir:NodeList object.\n   **   ~~~   ** Reference Object=AIRLOOPHVAC:ZONESPLITTER, Name=AIR LOOP HVAC ZONE SPLITTER 3\n   ** Severe  ** Node Connection Error, Node=\"NODE 68\", Inlet node did not find an appropriate matching \"outlet\" node.\n   **   ~~~   ** If this is an outdoor air inlet node, it must be listed in an OutdoorAir:Node or OutdoorAir:NodeList object.\n   **   ~~~   ** Reference Object=AIRLOOPHVAC:ZONEMIXER, Name=AIR LOOP HVAC ZONE MIXER 1\n   ** Severe  ** Node Connection Error, Node=\"NODE 70\", Inlet node did not find an appropriate matching \"outlet\" node.\n   **   ~~~   ** If this is an outdoor air inlet node, it must be listed in an OutdoorAir:Node or OutdoorAir:NodeList object.\n   **   ~~~   ** Reference Object=AIRLOOPHVAC:ZONEMIXER, Name=AIR LOOP HVAC ZONE MIXER 1\n   ** Severe  ** Node Connection Error, Node=\"NODE 72\", Inlet node did not find an appropriate matching \"outlet\" node.\n   **   ~~~   ** If this is an outdoor air inlet node, it must be listed in an OutdoorAir:Node or OutdoorAir:NodeList object.\n   **   ~~~   ** Reference Object=AIRLOOPHVAC:ZONEMIXER, Name=AIR LOOP HVAC ZONE MIXER 1\n   ** Severe  ** Node Connection Error, Node=\"NODE 74\", Inlet node did not find an appropriate matching \"outlet\" node.\n   **   ~~~   ** If this is an outdoor air inlet node, it must be listed in an OutdoorAir:Node or OutdoorAir:NodeList object.\n   **   ~~~   ** Reference Object=AIRLOOPHVAC:ZONEMIXER, Name=AIR LOOP HVAC ZONE MIXER 1\n   ** Severe  ** Node Connection Error, Node=\"NODE 76\", Inlet node did not find an appropriate matching \"outlet\" node.\n   **   ~~~   ** If this is an outdoor air inlet node, it must be listed in an OutdoorAir:Node or OutdoorAir:NodeList object.\n   **   ~~~   ** Reference Object=AIRLOOPHVAC:ZONEMIXER, Name=AIR LOOP HVAC ZONE MIXER 1\n   ** Severe  ** Node Connection Error, Node=\"NODE 78\", Inlet node did not find an appropriate matching \"outlet\" node.\n   **   ~~~   ** If this is an outdoor air inlet node, it must be listed in an OutdoorAir:Node or OutdoorAir:NodeList object.\n   **   ~~~   ** Reference Object=AIRLOOPHVAC:ZONEMIXER, Name=AIR LOOP HVAC ZONE MIXER 1\n   ** Severe  ** Node Connection Error, Node=\"NODE 80\", Inlet node did not find an appropriate matching \"outlet\" node.\n   **   ~~~   ** If this is an outdoor air inlet node, it must be listed in an OutdoorAir:Node or OutdoorAir:NodeList object.\n   **   ~~~   ** Reference Object=AIRLOOPHVAC:ZONEMIXER, Name=AIR LOOP HVAC ZONE MIXER 1\n   ** Severe  ** Node Connection Error, Node=\"NODE 82\", Inlet node did not find an appropriate matching \"outlet\" node.\n   **   ~~~   ** If this is an outdoor air inlet node, it must be listed in an OutdoorAir:Node or OutdoorAir:NodeList object.\n   **   ~~~   ** Reference Object=AIRLOOPHVAC:ZONEMIXER, Name=AIR LOOP HVAC ZONE MIXER 1\n   ** Severe  ** Node Connection Error, Node=\"NODE 84\", Inlet node did not find an appropriate matching \"outlet\" node.\n   **   ~~~   ** If this is an outdoor air inlet node, it must be listed in an OutdoorAir:Node or OutdoorAir:NodeList object.\n   **   ~~~   ** Reference Object=AIRLOOPHVAC:ZONEMIXER, Name=AIR LOOP HVAC ZONE MIXER 1\n   ** Severe  ** Node Connection Error, Node=\"NODE 86\", Inlet node did not find an appropriate matching \"outlet\" node.\n   **   ~~~   ** If this is an outdoor air inlet node, it must be listed in an OutdoorAir:Node or OutdoorAir:NodeList object.\n   **   ~~~   ** Reference Object=AIRLOOPHVAC:ZONEMIXER, Name=AIR LOOP HVAC ZONE MIXER 1\n   ** Severe  ** Node Connection Error, Node=\"NODE 88\", Inlet node did not find an appropriate matching \"outlet\" node.\n   **   ~~~   ** If this is an outdoor air inlet node, it must be listed in an OutdoorAir:Node or OutdoorAir:NodeList object.\n   **   ~~~   ** Reference Object=AIRLOOPHVAC:ZONEMIXER, Name=AIR LOOP HVAC ZONE MIXER 1\n   ** Severe  ** Node Connection Error, Node=\"NODE 90\", Inlet node did not find an appropriate matching \"outlet\" node.\n   **   ~~~   ** If this is an outdoor air inlet node, it must be listed in an OutdoorAir:Node or OutdoorAir:NodeList object.\n   **   ~~~   ** Reference Object=AIRLOOPHVAC:ZONEMIXER, Name=AIR LOOP HVAC ZONE MIXER 1\n   ** Severe  ** Node Connection Error, Node=\"NODE 92\", Inlet node did not find an appropriate matching \"outlet\" node.\n   **   ~~~   ** If this is an outdoor air inlet node, it must be listed in an OutdoorAir:Node or OutdoorAir:NodeList object.\n   **   ~~~   ** Reference Object=AIRLOOPHVAC:ZONEMIXER, Name=AIR LOOP HVAC ZONE MIXER 1\n   ** Severe  ** Node Connection Error, Node=\"NODE 94\", Inlet node did not find an appropriate matching \"outlet\" node.\n   **   ~~~   ** If this is an outdoor air inlet node, it must be listed in an OutdoorAir:Node or OutdoorAir:NodeList object.\n   **   ~~~   ** Reference Object=AIRLOOPHVAC:ZONEMIXER, Name=AIR LOOP HVAC ZONE MIXER 1\n   ** Severe  ** Node Connection Error, Node=\"NODE 176\", Inlet node did not find an appropriate matching \"outlet\" node.\n   **   ~~~   ** If this is an outdoor air inlet node, it must be listed in an OutdoorAir:Node or OutdoorAir:NodeList object.\n   **   ~~~   ** Reference Object=AIRLOOPHVAC:ZONEMIXER, Name=AIR LOOP HVAC ZONE MIXER 1\n   ** Severe  ** Node Connection Error, Node=\"NODE 178\", Inlet node did not find an appropriate matching \"outlet\" node.\n   **   ~~~   ** If this is an outdoor air inlet node, it must be listed in an OutdoorAir:Node or OutdoorAir:NodeList object.\n   **   ~~~   ** Reference Object=AIRLOOPHVAC:ZONEMIXER, Name=AIR LOOP HVAC ZONE MIXER 1\n   ** Severe  ** Node Connection Error, Node=\"NODE 196\", Inlet node did not find an appropriate matching \"outlet\" node.\n   **   ~~~   ** If this is an outdoor air inlet node, it must be listed in an OutdoorAir:Node or OutdoorAir:NodeList object.\n   **   ~~~   ** Reference Object=AIRLOOPHVAC:ZONEMIXER, Name=AIR LOOP HVAC ZONE MIXER 1\n   ** Severe  ** Node Connection Error, Node=\"NODE 198\", Inlet node did not find an appropriate matching \"outlet\" node.\n   **   ~~~   ** If this is an outdoor air inlet node, it must be listed in an OutdoorAir:Node or OutdoorAir:NodeList object.\n   **   ~~~   ** Reference Object=AIRLOOPHVAC:ZONEMIXER, Name=AIR LOOP HVAC ZONE MIXER 1\n   ** Severe  ** Node Connection Error, Node=\"NODE 105\", Inlet node did not find an appropriate matching \"outlet\" node.\n   **   ~~~   ** If this is an outdoor air inlet node, it must be listed in an OutdoorAir:Node or OutdoorAir:NodeList object.\n   **   ~~~   ** Reference Object=AIRLOOPHVAC:ZONEMIXER, Name=AIR LOOP HVAC ZONE MIXER 2\n   ** Severe  ** Node Connection Error, Node=\"NODE 107\", Inlet node did not find an appropriate matching \"outlet\" node.\n   **   ~~~   ** If this is an outdoor air inlet node, it must be listed in an OutdoorAir:Node or OutdoorAir:NodeList object.\n   **   ~~~   ** Reference Object=AIRLOOPHVAC:ZONEMIXER, Name=AIR LOOP HVAC ZONE MIXER 2\n   ** Severe  ** Node Connection Error, Node=\"NODE 109\", Inlet node did not find an appropriate matching \"outlet\" node.\n   **   ~~~   ** If this is an outdoor air inlet node, it must be listed in an OutdoorAir:Node or OutdoorAir:NodeList object.\n   **   ~~~   ** Reference Object=AIRLOOPHVAC:ZONEMIXER, Name=AIR LOOP HVAC ZONE MIXER 2\n   ** Severe  ** Node Connection Error, Node=\"NODE 111\", Inlet node did not find an appropriate matching \"outlet\" node.\n   **   ~~~   ** If this is an outdoor air inlet node, it must be listed in an OutdoorAir:Node or OutdoorAir:NodeList object.\n   **   ~~~   ** Reference Object=AIRLOOPHVAC:ZONEMIXER, Name=AIR LOOP HVAC ZONE MIXER 2\n   ** Severe  ** Node Connection Error, Node=\"NODE 113\", Inlet node did not find an appropriate matching \"outlet\" node.\n   **   ~~~   ** If this is an outdoor air inlet node, it must be listed in an OutdoorAir:Node or OutdoorAir:NodeList object.\n   **   ~~~   ** Reference Object=AIRLOOPHVAC:ZONEMIXER, Name=AIR LOOP HVAC ZONE MIXER 2\n   ** Severe  ** Node Connection Error, Node=\"NODE 115\", Inlet node did not find an appropriate matching \"outlet\" node.\n   **   ~~~   ** If this is an outdoor air inlet node, it must be listed in an OutdoorAir:Node or OutdoorAir:NodeList object.\n   **   ~~~   ** Reference Object=AIRLOOPHVAC:ZONEMIXER, Name=AIR LOOP HVAC ZONE MIXER 2\n   ** Severe  ** Node Connection Error, Node=\"NODE 117\", Inlet node did not find an appropriate matching \"outlet\" node.\n   **   ~~~   ** If this is an outdoor air inlet node, it must be listed in an OutdoorAir:Node or OutdoorAir:NodeList object.\n   **   ~~~   ** Reference Object=AIRLOOPHVAC:ZONEMIXER, Name=AIR LOOP HVAC ZONE MIXER 2\n   ** Severe  ** Node Connection Error, Node=\"NODE 119\", Inlet node did not find an appropriate matching \"outlet\" node.\n   **   ~~~   ** If this is an outdoor air inlet node, it must be listed in an OutdoorAir:Node or OutdoorAir:NodeList object.\n   **   ~~~   ** Reference Object=AIRLOOPHVAC:ZONEMIXER, Name=AIR LOOP HVAC ZONE MIXER 2\n   ** Severe  ** Node Connection Error, Node=\"NODE 121\", Inlet node did not find an appropriate matching \"outlet\" node.\n   **   ~~~   ** If this is an outdoor air inlet node, it must be listed in an OutdoorAir:Node or OutdoorAir:NodeList object.\n   **   ~~~   ** Reference Object=AIRLOOPHVAC:ZONEMIXER, Name=AIR LOOP HVAC ZONE MIXER 2\n   ** Severe  ** Node Connection Error, Node=\"NODE 123\", Inlet node did not find an appropriate matching \"outlet\" node.\n   **   ~~~   ** If this is an outdoor air inlet node, it must be listed in an OutdoorAir:Node or OutdoorAir:NodeList object.\n   **   ~~~   ** Reference Object=AIRLOOPHVAC:ZONEMIXER, Name=AIR LOOP HVAC ZONE MIXER 2\n   ** Severe  ** Node Connection Error, Node=\"NODE 125\", Inlet node did not find an appropriate matching \"outlet\" node.\n   **   ~~~   ** If this is an outdoor air inlet node, it must be listed in an OutdoorAir:Node or OutdoorAir:NodeList object.\n   **   ~~~   ** Reference Object=AIRLOOPHVAC:ZONEMIXER, Name=AIR LOOP HVAC ZONE MIXER 2\n   ** Severe  ** Node Connection Error, Node=\"NODE 127\", Inlet node did not find an appropriate matching \"outlet\" node.\n   **   ~~~   ** If this is an outdoor air inlet node, it must be listed in an OutdoorAir:Node or OutdoorAir:NodeList object.\n   **   ~~~   ** Reference Object=AIRLOOPHVAC:ZONEMIXER, Name=AIR LOOP HVAC ZONE MIXER 2\n   ** Severe  ** Node Connection Error, Node=\"NODE 129\", Inlet node did not find an appropriate matching \"outlet\" node.\n   **   ~~~   ** If this is an outdoor air inlet node, it must be listed in an OutdoorAir:Node or OutdoorAir:NodeList object.\n   **   ~~~   ** Reference Object=AIRLOOPHVAC:ZONEMIXER, Name=AIR LOOP HVAC ZONE MIXER 2\n   ** Severe  ** Node Connection Error, Node=\"NODE 131\", Inlet node did not find an appropriate matching \"outlet\" node.\n   **   ~~~   ** If this is an outdoor air inlet node, it must be listed in an OutdoorAir:Node or OutdoorAir:NodeList object.\n   **   ~~~   ** Reference Object=AIRLOOPHVAC:ZONEMIXER, Name=AIR LOOP HVAC ZONE MIXER 2\n   ** Severe  ** Node Connection Error, Node=\"NODE 133\", Inlet node did not find an appropriate matching \"outlet\" node.\n   **   ~~~   ** If this is an outdoor air inlet node, it must be listed in an OutdoorAir:Node or OutdoorAir:NodeList object.\n   **   ~~~   ** Reference Object=AIRLOOPHVAC:ZONEMIXER, Name=AIR LOOP HVAC ZONE MIXER 2\n   ** Severe  ** Node Connection Error, Node=\"NODE 182\", Inlet node did not find an appropriate matching \"outlet\" node.\n   **   ~~~   ** If this is an outdoor air inlet node, it must be listed in an OutdoorAir:Node or OutdoorAir:NodeList object.\n   **   ~~~   ** Reference Object=AIRLOOPHVAC:ZONEMIXER, Name=AIR LOOP HVAC ZONE MIXER 2\n   ** Severe  ** Node Connection Error, Node=\"NODE 192\", Inlet node did not find an appropriate matching \"outlet\" node.\n   **   ~~~   ** If this is an outdoor air inlet node, it must be listed in an OutdoorAir:Node or OutdoorAir:NodeList object.\n   **   ~~~   ** Reference Object=AIRLOOPHVAC:ZONEMIXER, Name=AIR LOOP HVAC ZONE MIXER 2\n   ** Severe  ** Node Connection Error, Node=\"NODE 194\", Inlet node did not find an appropriate matching \"outlet\" node.\n   **   ~~~   ** If this is an outdoor air inlet node, it must be listed in an OutdoorAir:Node or OutdoorAir:NodeList object.\n   **   ~~~   ** Reference Object=AIRLOOPHVAC:ZONEMIXER, Name=AIR LOOP HVAC ZONE MIXER 2\n   ** Severe  ** Node Connection Error, Node=\"NODE 144\", Inlet node did not find an appropriate matching \"outlet\" node.\n   **   ~~~   ** If this is an outdoor air inlet node, it must be listed in an OutdoorAir:Node or OutdoorAir:NodeList object.\n   **   ~~~   ** Reference Object=AIRLOOPHVAC:ZONEMIXER, Name=AIR LOOP HVAC ZONE MIXER 3\n   ** Severe  ** Node Connection Error, Node=\"NODE 146\", Inlet node did not find an appropriate matching \"outlet\" node.\n   **   ~~~   ** If this is an outdoor air inlet node, it must be listed in an OutdoorAir:Node or OutdoorAir:NodeList object.\n   **   ~~~   ** Reference Object=AIRLOOPHVAC:ZONEMIXER, Name=AIR LOOP HVAC ZONE MIXER 3\n   ** Severe  ** Node Connection Error, Node=\"NODE 148\", Inlet node did not find an appropriate matching \"outlet\" node.\n   **   ~~~   ** If this is an outdoor air inlet node, it must be listed in an OutdoorAir:Node or OutdoorAir:NodeList object.\n   **   ~~~   ** Reference Object=AIRLOOPHVAC:ZONEMIXER, Name=AIR LOOP HVAC ZONE MIXER 3\n   ** Severe  ** Node Connection Error, Node=\"NODE 150\", Inlet node did not find an appropriate matching \"outlet\" node.\n   **   ~~~   ** If this is an outdoor air inlet node, it must be listed in an OutdoorAir:Node or OutdoorAir:NodeList object.\n   **   ~~~   ** Reference Object=AIRLOOPHVAC:ZONEMIXER, Name=AIR LOOP HVAC ZONE MIXER 3\n   ** Severe  ** Node Connection Error, Node=\"NODE 152\", Inlet node did not find an appropriate matching \"outlet\" node.\n   **   ~~~   ** If this is an outdoor air inlet node, it must be listed in an OutdoorAir:Node or OutdoorAir:NodeList object.\n   **   ~~~   ** Reference Object=AIRLOOPHVAC:ZONEMIXER, Name=AIR LOOP HVAC ZONE MIXER 3\n   ** Severe  ** Node Connection Error, Node=\"NODE 154\", Inlet node did not find an appropriate matching \"outlet\" node.\n   **   ~~~   ** If this is an outdoor air inlet node, it must be listed in an OutdoorAir:Node or OutdoorAir:NodeList object.\n   **   ~~~   ** Reference Object=AIRLOOPHVAC:ZONEMIXER, Name=AIR LOOP HVAC ZONE MIXER 3\n   ** Severe  ** Node Connection Error, Node=\"NODE 156\", Inlet node did not find an appropriate matching \"outlet\" node.\n   **   ~~~   ** If this is an outdoor air inlet node, it must be listed in an OutdoorAir:Node or OutdoorAir:NodeList object.\n   **   ~~~   ** Reference Object=AIRLOOPHVAC:ZONEMIXER, Name=AIR LOOP HVAC ZONE MIXER 3\n   ** Severe  ** Node Connection Error, Node=\"NODE 158\", Inlet node did not find an appropriate matching \"outlet\" node.\n   **   ~~~   ** If this is an outdoor air inlet node, it must be listed in an OutdoorAir:Node or OutdoorAir:NodeList object.\n   **   ~~~   ** Reference Object=AIRLOOPHVAC:ZONEMIXER, Name=AIR LOOP HVAC ZONE MIXER 3\n   ** Severe  ** Node Connection Error, Node=\"NODE 160\", Inlet node did not find an appropriate matching \"outlet\" node.\n   **   ~~~   ** If this is an outdoor air inlet node, it must be listed in an OutdoorAir:Node or OutdoorAir:NodeList object.\n   **   ~~~   ** Reference Object=AIRLOOPHVAC:ZONEMIXER, Name=AIR LOOP HVAC ZONE MIXER 3\n   ** Severe  ** Node Connection Error, Node=\"NODE 162\", Inlet node did not find an appropriate matching \"outlet\" node.\n   **   ~~~   ** If this is an outdoor air inlet node, it must be listed in an OutdoorAir:Node or OutdoorAir:NodeList object.\n   **   ~~~   ** Reference Object=AIRLOOPHVAC:ZONEMIXER, Name=AIR LOOP HVAC ZONE MIXER 3\n   ** Severe  ** Node Connection Error, Node=\"NODE 164\", Inlet node did not find an appropriate matching \"outlet\" node.\n   **   ~~~   ** If this is an outdoor air inlet node, it must be listed in an OutdoorAir:Node or OutdoorAir:NodeList object.\n   **   ~~~   ** Reference Object=AIRLOOPHVAC:ZONEMIXER, Name=AIR LOOP HVAC ZONE MIXER 3\n   ** Severe  ** Node Connection Error, Node=\"NODE 166\", Inlet node did not find an appropriate matching \"outlet\" node.\n   **   ~~~   ** If this is an outdoor air inlet node, it must be listed in an OutdoorAir:Node or OutdoorAir:NodeList object.\n   **   ~~~   ** Reference Object=AIRLOOPHVAC:ZONEMIXER, Name=AIR LOOP HVAC ZONE MIXER 3\n   ** Severe  ** Node Connection Error, Node=\"NODE 168\", Inlet node did not find an appropriate matching \"outlet\" node.\n   **   ~~~   ** If this is an outdoor air inlet node, it must be listed in an OutdoorAir:Node or OutdoorAir:NodeList object.\n   **   ~~~   ** Reference Object=AIRLOOPHVAC:ZONEMIXER, Name=AIR LOOP HVAC ZONE MIXER 3\n   ** Severe  ** Node Connection Error, Node=\"NODE 170\", Inlet node did not find an appropriate matching \"outlet\" node.\n   **   ~~~   ** If this is an outdoor air inlet node, it must be listed in an OutdoorAir:Node or OutdoorAir:NodeList object.\n   **   ~~~   ** Reference Object=AIRLOOPHVAC:ZONEMIXER, Name=AIR LOOP HVAC ZONE MIXER 3\n   ** Severe  ** Node Connection Error, Node=\"NODE 172\", Inlet node did not find an appropriate matching \"outlet\" node.\n   **   ~~~   ** If this is an outdoor air inlet node, it must be listed in an OutdoorAir:Node or OutdoorAir:NodeList object.\n   **   ~~~   ** Reference Object=AIRLOOPHVAC:ZONEMIXER, Name=AIR LOOP HVAC ZONE MIXER 3\n   ** Severe  ** Node Connection Error, Node=\"NODE 174\", Inlet node did not find an appropriate matching \"outlet\" node.\n   **   ~~~   ** If this is an outdoor air inlet node, it must be listed in an OutdoorAir:Node or OutdoorAir:NodeList object.\n   **   ~~~   ** Reference Object=AIRLOOPHVAC:ZONEMIXER, Name=AIR LOOP HVAC ZONE MIXER 3\n   ** Severe  ** Node Connection Error, Node=\"NODE 186\", Inlet node did not find an appropriate matching \"outlet\" node.\n   **   ~~~   ** If this is an outdoor air inlet node, it must be listed in an OutdoorAir:Node or OutdoorAir:NodeList object.\n   **   ~~~   ** Reference Object=AIRLOOPHVAC:ZONEMIXER, Name=AIR LOOP HVAC ZONE MIXER 3\n   ** Severe  ** Node Connection Error, Node=\"NODE 190\", Inlet node did not find an appropriate matching \"outlet\" node.\n   **   ~~~   ** If this is an outdoor air inlet node, it must be listed in an OutdoorAir:Node or OutdoorAir:NodeList object.\n   **   ~~~   ** Reference Object=AIRLOOPHVAC:ZONEMIXER, Name=AIR LOOP HVAC ZONE MIXER 3\n   ************* There were 57 node connection errors noted.\n   ************* Beginning Simulation\n   ** Warning ** Processing Monthly Tabular Reports: Variable names not valid for this simulation\n   **   ~~~   ** ...use Output:Diagnostics,DisplayExtraWarnings; to show more details on individual variables.\n   ** Warning ** Plant Loop: CONDENSER WATER LOOP Demand Side is storing excess heat the majority of the time.\n   ** Warning ** Plant Loop: CONDENSER WATER LOOP Supply Side is storing excess heat the majority of the time.\n   ** Warning ** Plant Loop: CONDENSER WATER LOOP 1 Demand Side is storing excess heat the majority of the time.\n   ** Warning ** Plant Loop: CONDENSER WATER LOOP 1 Supply Side is storing excess heat the majority of the time.\n   ** Warning ** Plant Loop: CONDENSER WATER LOOP 2 Demand Side is storing excess heat the majority of the time.\n   ** Warning ** Plant Loop: CONDENSER WATER LOOP 2 Supply Side is storing excess heat the majority of the time.\n   ** Warning ** The resource referenced by LifeCycleCost:UsePriceEscalation= \"U.S. AVG  COMMERCIAL-ELECTRICITY\" has no energy cost. \n   **   ~~~   ** ... It is likely that the wrong resource is used. The resource should match the meter used in Utility:Tariff.\n   ** Warning ** The resource referenced by LifeCycleCost:UsePriceEscalation= \"U.S. AVG  COMMERCIAL-DISTILLATE OIL\" has no energy cost. \n   **   ~~~   ** ... It is likely that the wrong resource is used. The resource should match the meter used in Utility:Tariff.\n   ** Warning ** The resource referenced by LifeCycleCost:UsePriceEscalation= \"U.S. AVG  COMMERCIAL-RESIDUAL OIL\" has no energy cost. \n   **   ~~~   ** ... It is likely that the wrong resource is used. The resource should match the meter used in Utility:Tariff.\n   ** Warning ** The resource referenced by LifeCycleCost:UsePriceEscalation= \"U.S. AVG  COMMERCIAL-NATURAL GAS\" has no energy cost. \n   **   ~~~   ** ... It is likely that the wrong resource is used. The resource should match the meter used in Utility:Tariff.\n   ** Warning ** The resource referenced by LifeCycleCost:UsePriceEscalation= \"U.S. AVG  COMMERCIAL-COAL\" has no energy cost. \n   **   ~~~   ** ... It is likely that the wrong resource is used. The resource should match the meter used in Utility:Tariff.\n   ************* Simulation Error Summary *************\n   ************* There are 14 unused schedules in input.\n   ************* There are 17 unused week schedules in input.\n   ************* There are 48 unused day schedules in input.\n   ************* Use Output:Diagnostics,DisplayUnusedSchedules; to see them.\n   *************\n   ************* ===== Final Error Summary =====\n   ************* The following error categories occurred.  Consider correcting or noting.\n   ************* Node Connection Errors\n   ************* ..Node connection errors are often caused by spelling mistakes in a node name field.\n   ************* ..To track down the problem, search the idf file for each node name listed to see if it\n   ************* ..occurs in the expected input fields.\n   ************* Nominally Unused Constructions\n   ************* ..The nominally unused constructions warning is provided to alert you to potential conditions that can cause\n   ************* ..extra time during simulation. Each construction is calculated by the algorithm indicated in the HeatBalanceAlgorithm\n   ************* ..object. You may remove the constructions indicated (when you use the DisplayExtraWarnings option).\n   *************\n   ************* EnergyPlus Warmup Error Summary. During Warmup: 0 Warning; 0 Severe Errors.\n   ************* EnergyPlus Sizing Error Summary. During Sizing: 65 Warning; 0 Severe Errors.\n   ************* EnergyPlus Completed Successfully-- 94 Warning; 63 Severe Errors; ",
  "seed_file": "in.osm",
  "steps": [
    {
      "arguments": {
      },
      "measure_dir_name": "openstudio_results",
      "result": {
        "measure_class_name": "OpenStudioResults",
        "measure_display_name": "OpenStudio Results",
        "measure_name": "openstudio_results",
        "measure_taxonomy": "Reporting.QAQC",
        "measure_type": "ReportingMeasure",
        "measure_uid": "a25386cd-60e4-46bc-8b11-c755f379d916",
        "measure_version_id": "5b8e57e8-830a-43ae-90d4-a41d97698d95",
        "measure_version_modified": "20171219T161835Z",
        "measure_xml_checksum": "557BF06F",
        "stderr": "",
        "stdout": "",
        "step_errors": [

        ],
        "step_final_condition": "Generated report with 21 sections to ./report.html.",
        "step_info": [

        ],
        "step_initial_condition": "Gathering data from EnergyPlus SQL file and OSM model.",
        "step_result": "Success",
        "step_values": [
          {
            "name": "building_summary_section",
            "value": true
          },
          {
            "name": "annual_overview_section",
            "value": true
          },
          {
            "name": "monthly_overview_section",
            "value": true
          },
          {
            "name": "utility_bills_rates_section",
            "value": true
          },
          {
            "name": "envelope_section_section",
            "value": true
          },
          {
            "name": "space_type_breakdown_section",
            "value": true
          },
          {
            "name": "space_type_details_section",
            "value": true
          },
          {
            "name": "interior_lighting_section",
            "value": true
          },
          {
            "name": "plug_loads_section",
            "value": true
          },
          {
            "name": "exterior_light_section",
            "value": true
          },
          {
            "name": "water_use_section",
            "value": true
          },
          {
            "name": "hvac_load_profile",
            "value": true
          },
          {
            "name": "zone_condition_section",
            "value": true
          },
          {
            "name": "zone_summary_section",
            "value": true
          },
          {
            "name": "zone_equipment_detail_section",
            "value": true
          },
          {
            "name": "air_loops_detail_section",
            "value": true
          },
          {
            "name": "plant_loops_detail_section",
            "value": true
          },
          {
            "name": "outdoor_air_section",
            "value": true
          },
          {
            "name": "cost_summary_section",
            "value": true
          },
          {
            "name": "source_energy_section",
            "value": true
          },
          {
            "name": "schedules_overview_section",
            "value": true
          },
          {
            "display_name": "Mid-rise Apartment",
            "name": "building_name",
            "value": "building_name"
          },
          {
            "name": "total_site_energy",
            "units": "kBtu",
            "value": 744368.1754380638
          },
          {
            "name": "net_site_energy",
            "units": "kBtu",
            "value": 744368.1754380638
          },
          {
            "name": "total_building_area",
            "units": "ft^2",
            "value": 17268.003286006573
          },
          {
            "name": "total_site_eui",
            "units": "kBtu/ft^2",
            "value": 43.10678907741901
          },
          {
            "name": "eui",
            "units": "kBtu/ft^2",
            "value": 43.10678907741901
          },
          {
            "name": "unmet_hours_during_heating",
            "units": "hr",
            "value": 0
          },
          {
            "name": "unmet_hours_during_cooling",
            "units": "hr",
            "value": 0
          },
          {
            "name": "unmet_hours_during_occupied_heating",
            "units": "hr",
            "value": 0
          },
          {
            "name": "unmet_hours_during_occupied_cooling",
            "units": "hr",
            "value": 0
          },
          {
            "name": "unmet_hours_tolerance_heating",
            "units": "F",
            "value": 0.36
          },
          {
            "name": "unmet_hours_tolerance_cooling",
            "units": "F",
            "value": 0.36
          },
          {
            "name": "end_use_heating",
            "units": "kBtu",
            "value": 213211.46121448072
          },
          {
            "name": "end_use_cooling",
            "units": "kBtu",
            "value": 116221.33529281897
          },
          {
            "name": "end_use_interior_lighting",
            "units": "kBtu",
            "value": 106525.16615201373
          },
          {
            "name": "end_use_exterior_lighting",
            "units": "kBtu",
            "value": 0
          },
          {
            "name": "end_use_interior_equipment",
            "units": "kBtu",
            "value": 101416.43187352495
          },
          {
            "name": "end_use_exterior_equipment",
            "units": "kBtu",
            "value": 0
          },
          {
            "name": "end_use_fans",
            "units": "kBtu",
            "value": 16027.587504498195
          },
          {
            "name": "end_use_pumps",
            "units": "kBtu",
            "value": 132902.91661033334
          },
          {
            "name": "end_use_heat_rejection",
            "units": "kBtu",
            "value": 58063.276790393815
          },
          {
            "name": "end_use_humidification",
            "units": "kBtu",
            "value": 0
          },
          {
            "name": "end_use_heat_recovery",
            "units": "kBtu",
            "value": 0
          },
          {
            "name": "end_use_water_systems",
            "units": "kBtu",
            "value": 0
          },
          {
            "name": "end_use_refrigeration",
            "units": "kBtu",
            "value": 0
          },
          {
            "name": "end_use_generators",
            "units": "kBtu",
            "value": 0
          },
          {
            "name": "fuel_electricity",
            "units": "kBtu",
            "value": 531156.714223583
          },
          {
            "name": "fuel_natural_gas",
            "units": "kBtu",
            "value": 213211.46121448072
          },
          {
            "name": "fuel_additional_fuel",
            "units": "kBtu",
            "value": 0
          },
          {
            "name": "fuel_district_cooling",
            "units": "kBtu",
            "value": 0
          },
          {
            "name": "fuel_district_heating",
            "units": "kBtu",
            "value": 0
          },
          {
            "name": "end_use_electricity_heating",
            "units": "kWh",
            "value": 0
          },
          {
            "name": "end_use_electricity_cooling",
            "units": "kWh",
            "value": 34061.11111111111
          },
          {
            "name": "end_use_electricity_interior_lighting",
            "units": "kWh",
            "value": 31219.444444444445
          },
          {
            "name": "end_use_electricity_exterior_lighting",
            "units": "kWh",
            "value": 0
          },
          {
            "name": "end_use_electricity_interior_equipment",
            "units": "kWh",
            "value": 29722.222222222226
          },
          {
            "name": "end_use_electricity_exterior_equipment",
            "units": "kWh",
            "value": 0
          },
          {
            "name": "end_use_electricity_fans",
            "units": "kWh",
            "value": 4697.222222222222
          },
          {
            "name": "end_use_electricity_pumps",
            "units": "kWh",
            "value": 38950
          },
          {
            "name": "end_use_electricity_heat_rejection",
            "units": "kWh",
            "value": 17016.666666666668
          },
          {
            "name": "end_use_electricity_humidification",
            "units": "kWh",
            "value": 0
          },
          {
            "name": "end_use_electricity_heat_recovery",
            "units": "kWh",
            "value": 0
          },
          {
            "name": "end_use_electricity_water_systems",
            "units": "kWh",
            "value": 0
          },
          {
            "name": "end_use_electricity_refrigeration",
            "units": "kWh",
            "value": 0
          },
          {
            "name": "end_use_electricity_generators",
            "units": "kWh",
            "value": 0
          },
          {
            "name": "end_use_natural_gas_heating",
            "units": "therms",
            "value": 2132.526
          },
          {
            "name": "end_use_natural_gas_cooling",
            "units": "therms",
            "value": 0
          },
          {
            "name": "end_use_natural_gas_interior_lighting",
            "units": "therms",
            "value": 0
          },
          {
            "name": "end_use_natural_gas_exterior_lighting",
            "units": "therms",
            "value": 0
          },
          {
            "name": "end_use_natural_gas_interior_equipment",
            "units": "therms",
            "value": 0
          },
          {
            "name": "end_use_natural_gas_exterior_equipment",
            "units": "therms",
            "value": 0
          },
          {
            "name": "end_use_natural_gas_fans",
            "units": "therms",
            "value": 0
          },
          {
            "name": "end_use_natural_gas_pumps",
            "units": "therms",
            "value": 0
          },
          {
            "name": "end_use_natural_gas_heat_rejection",
            "units": "therms",
            "value": 0
          },
          {
            "name": "end_use_natural_gas_humidification",
            "units": "therms",
            "value": 0
          },
          {
            "name": "end_use_natural_gas_heat_recovery",
            "units": "therms",
            "value": 0
          },
          {
            "name": "end_use_natural_gas_water_systems",
            "units": "therms",
            "value": 0
          },
          {
            "name": "end_use_natural_gas_refrigeration",
            "units": "therms",
            "value": 0
          },
          {
            "name": "end_use_natural_gas_generators",
            "units": "therms",
            "value": 0
          },
          {
            "name": "electricity_heating_ip",
            "units": "kWh",
            "value": 0
          },
          {
            "name": "electricity_cooling_ip",
            "units": "kWh",
            "value": 34062.097222222226
          },
          {
            "name": "electricity_interior_lighting_ip",
            "units": "kWh",
            "value": 31219.291666666668
          },
          {
            "name": "electricity_exterior_lighting_ip",
            "units": "kWh",
            "value": 0
          },
          {
            "name": "electricity_interior_equipment_ip",
            "units": "kWh",
            "value": 29721.125
          },
          {
            "name": "electricity_exterior_equipment_ip",
            "units": "kWh",
            "value": 0
          },
          {
            "name": "electricity_fans_ip",
            "units": "kWh",
            "value": 4696.027777777778
          },
          {
            "name": "electricity_pumps_ip",
            "units": "kWh",
            "value": 38949.22777777778
          },
          {
            "name": "electricity_heat_rejection_ip",
            "units": "kWh",
            "value": 17017.626666666667
          },
          {
            "name": "electricity_humidification_ip",
            "units": "kWh",
            "value": 0
          },
          {
            "name": "electricity_heat_recovery_ip",
            "units": "kWh",
            "value": 0
          },
          {
            "name": "electricity_water_systems_ip",
            "units": "kWh",
            "value": 0
          },
          {
            "name": "electricity_refrigeration_ip",
            "units": "kWh",
            "value": 0
          },
          {
            "name": "electricity_generators_ip",
            "units": "kWh",
            "value": 0
          },
          {
            "name": "electricity_ip",
            "units": "kWh",
            "value": 155665.3961111111
          },
          {
            "name": "natural_gas_heating_ip",
            "units": "MBtu",
            "value": 213.211428516335
          },
          {
            "name": "natural_gas_cooling_ip",
            "units": "MBtu",
            "value": 0
          },
          {
            "name": "natural_gas_interior_lighting_ip",
            "units": "MBtu",
            "value": 0
          },
          {
            "name": "natural_gas_exterior_lighting_ip",
            "units": "MBtu",
            "value": 0
          },
          {
            "name": "natural_gas_interior_equipment_ip",
            "units": "MBtu",
            "value": 0
          },
          {
            "name": "natural_gas_exterior_equipment_ip",
            "units": "MBtu",
            "value": 0
          },
          {
            "name": "natural_gas_fans_ip",
            "units": "MBtu",
            "value": 0
          },
          {
            "name": "natural_gas_pumps_ip",
            "units": "MBtu",
            "value": 0
          },
          {
            "name": "natural_gas_heat_rejection_ip",
            "units": "MBtu",
            "value": 0
          },
          {
            "name": "natural_gas_humidification_ip",
            "units": "MBtu",
            "value": 0
          },
          {
            "name": "natural_gas_heat_recovery_ip",
            "units": "MBtu",
            "value": 0
          },
          {
            "name": "natural_gas_water_systems_ip",
            "units": "MBtu",
            "value": 0
          },
          {
            "name": "natural_gas_refrigeration_ip",
            "units": "MBtu",
            "value": 0
          },
          {
            "name": "natural_gas_generators_ip",
            "units": "MBtu",
            "value": 0
          },
          {
            "name": "natural_gas_ip",
            "units": "MBtu",
            "value": 213.211428516335
          },
          {
            "name": "additional_fuel_heating_ip",
            "units": "MBtu",
            "value": 0
          },
          {
            "name": "additional_fuel_cooling_ip",
            "units": "MBtu",
            "value": 0
          },
          {
            "name": "additional_fuel_interior_lighting_ip",
            "units": "MBtu",
            "value": 0
          },
          {
            "name": "additional_fuel_exterior_lighting_ip",
            "units": "MBtu",
            "value": 0
          },
          {
            "name": "additional_fuel_interior_equipment_ip",
            "units": "MBtu",
            "value": 0
          },
          {
            "name": "additional_fuel_exterior_equipment_ip",
            "units": "MBtu",
            "value": 0
          },
          {
            "name": "additional_fuel_fans_ip",
            "units": "MBtu",
            "value": 0
          },
          {
            "name": "additional_fuel_pumps_ip",
            "units": "MBtu",
            "value": 0
          },
          {
            "name": "additional_fuel_heat_rejection_ip",
            "units": "MBtu",
            "value": 0
          },
          {
            "name": "additional_fuel_humidification_ip",
            "units": "MBtu",
            "value": 0
          },
          {
            "name": "additional_fuel_heat_recovery_ip",
            "units": "MBtu",
            "value": 0
          },
          {
            "name": "additional_fuel_water_systems_ip",
            "units": "MBtu",
            "value": 0
          },
          {
            "name": "additional_fuel_refrigeration_ip",
            "units": "MBtu",
            "value": 0
          },
          {
            "name": "additional_fuel_generators_ip",
            "units": "MBtu",
            "value": 0
          },
          {
            "name": "additional_fuel_ip",
            "units": "MBtu",
            "value": 0
          },
          {
            "name": "district_cooling_heating_ip",
            "units": "MBtu",
            "value": 0
          },
          {
            "name": "district_cooling_cooling_ip",
            "units": "MBtu",
            "value": 0
          },
          {
            "name": "district_cooling_interior_lighting_ip",
            "units": "MBtu",
            "value": 0
          },
          {
            "name": "district_cooling_exterior_lighting_ip",
            "units": "MBtu",
            "value": 0
          },
          {
            "name": "district_cooling_interior_equipment_ip",
            "units": "MBtu",
            "value": 0
          },
          {
            "name": "district_cooling_exterior_equipment_ip",
            "units": "MBtu",
            "value": 0
          },
          {
            "name": "district_cooling_fans_ip",
            "units": "MBtu",
            "value": 0
          },
          {
            "name": "district_cooling_pumps_ip",
            "units": "MBtu",
            "value": 0
          },
          {
            "name": "district_cooling_heat_rejection_ip",
            "units": "MBtu",
            "value": 0
          },
          {
            "name": "district_cooling_humidification_ip",
            "units": "MBtu",
            "value": 0
          },
          {
            "name": "district_cooling_heat_recovery_ip",
            "units": "MBtu",
            "value": 0
          },
          {
            "name": "district_cooling_water_systems_ip",
            "units": "MBtu",
            "value": 0
          },
          {
            "name": "district_cooling_refrigeration_ip",
            "units": "MBtu",
            "value": 0
          },
          {
            "name": "district_cooling_generators_ip",
            "units": "MBtu",
            "value": 0
          },
          {
            "name": "district_cooling_ip",
            "units": "MBtu",
            "value": 0
          },
          {
            "name": "district_heating_heating_ip",
            "units": "MBtu",
            "value": 0
          },
          {
            "name": "district_heating_cooling_ip",
            "units": "MBtu",
            "value": 0
          },
          {
            "name": "district_heating_interior_lighting_ip",
            "units": "MBtu",
            "value": 0
          },
          {
            "name": "district_heating_exterior_lighting_ip",
            "units": "MBtu",
            "value": 0
          },
          {
            "name": "district_heating_interior_equipment_ip",
            "units": "MBtu",
            "value": 0
          },
          {
            "name": "district_heating_exterior_equipment_ip",
            "units": "MBtu",
            "value": 0
          },
          {
            "name": "district_heating_fans_ip",
            "units": "MBtu",
            "value": 0
          },
          {
            "name": "district_heating_pumps_ip",
            "units": "MBtu",
            "value": 0
          },
          {
            "name": "district_heating_heat_rejection_ip",
            "units": "MBtu",
            "value": 0
          },
          {
            "name": "district_heating_humidification_ip",
            "units": "MBtu",
            "value": 0
          },
          {
            "name": "district_heating_heat_recovery_ip",
            "units": "MBtu",
            "value": 0
          },
          {
            "name": "district_heating_water_systems_ip",
            "units": "MBtu",
            "value": 0
          },
          {
            "name": "district_heating_refrigeration_ip",
            "units": "MBtu",
            "value": 0
          },
          {
            "name": "district_heating_generators_ip",
            "units": "MBtu",
            "value": 0
          },
          {
            "name": "district_heating_ip",
            "units": "MBtu",
            "value": 0
          },
          {
            "name": "water_heating_ip",
            "units": "MBtu",
            "value": 0
          },
          {
            "name": "water_cooling_ip",
            "units": "MBtu",
            "value": 0
          },
          {
            "name": "water_interior_lighting_ip",
            "units": "MBtu",
            "value": 0
          },
          {
            "name": "water_exterior_lighting_ip",
            "units": "MBtu",
            "value": 0
          },
          {
            "name": "water_interior_equipment_ip",
            "units": "MBtu",
            "value": 0
          },
          {
            "name": "water_exterior_equipment_ip",
            "units": "MBtu",
            "value": 0
          },
          {
            "name": "water_fans_ip",
            "units": "MBtu",
            "value": 0
          },
          {
            "name": "water_pumps_ip",
            "units": "MBtu",
            "value": 0
          },
          {
            "name": "water_heat_rejection_ip",
            "units": "MBtu",
            "value": 0
          },
          {
            "name": "water_humidification_ip",
            "units": "MBtu",
            "value": 0
          },
          {
            "name": "water_heat_recovery_ip",
            "units": "MBtu",
            "value": 0
          },
          {
            "name": "water_water_systems_ip",
            "units": "MBtu",
            "value": 0
          },
          {
            "name": "water_refrigeration_ip",
            "units": "MBtu",
            "value": 0
          },
          {
            "name": "water_generators_ip",
            "units": "MBtu",
            "value": 0
          },
          {
            "name": "water_ip",
            "units": "MBtu",
            "value": 0
          },
          {
            "name": "ashrae_189_1_2009_ext_roof_iead_climate_zone_2_5",
            "units": "ft^2",
            "value": 5756.001095335525
          },
          {
            "name": "ashrae_189_1_2009_ext_wall_steel_frame_climate_zone_4_8",
            "units": "ft^2",
            "value": 6277.5125550251105
          },
          {
            "name": "ashrae_189_1_2009_ext_window_climate_zone_alt_res_4_5",
            "units": "ft^2",
            "value": 4185.008370016743
          },
          {
            "name": "gross_window_wall_ratio",
            "units": "%",
            "value": 40
          },
          {
            "name": "gross_window_wall_ratio_conditioned",
            "units": "%",
            "value": 40
          },
          {
            "name": "skylight_roof_ratio",
            "units": "%",
            "value": 0
          },
          {
            "name": "space_type_ashrae_189_1_2009_climate_zone_1_3_mid_rise_apartment_apartment",
            "units": "ft^2",
            "value": 290.6255812511625
          },
          {
            "name": "space_type_ashrae_189_1_2009_climate_zone_4_8_mid_rise_apartment_apartment",
            "units": "ft^2",
            "value": 10720.854775042882
          },
          {
            "name": "space_type_ashrae_189_1_2009_climate_zone_4_8_mid_rise_apartment_corridor",
            "units": "ft^2",
            "value": 4028.3934734536147
          },
          {
            "name": "space_type_ashrae_189_1_2009_climate_zone_4_8_mid_rise_apartment_office",
            "units": "ft^2",
            "value": 1743.753487506975
          },
          {
            "name": "space_type_empty_space_type",
            "units": "ft^2",
            "value": 484.3759687519375
          },
          {
            "name": "exterior_lighting_total_power",
            "units": "W",
            "value": 0
          },
          {
            "name": "exterior_lighting_total_consumption",
            "units": "kWh",
            "value": 218152.7777777778
          },
          {
            "name": "inflation_approach",
            "value": "Constant Dollar"
          },
          {
            "name": "analysis_length",
            "units": "yrs",
            "value": 25
          },
          {
            "name": "annual_peak_electric_demand",
            "units": "kW",
            "value": 26.38109
          },
          {
            "name": "first_year_capital_cost",
            "units": "$",
            "value": 0
          },
          {
            "name": "annual_utility_cost",
            "units": "$",
            "value": 0
          },
          {
            "name": "total_lifecycle_cost",
            "units": "$",
            "value": 0
          }
        ],
        "step_warnings": [

        ]
      }
    }
  ],
  "weather_file": "../../weatherdata/USA_IL_Chicago-OHare.Intl.AP.725300_TMY3.epw"
}