{
  "completed_status": "Fail",
  "current_step": 0,
  "eplusout_err": [
    "Program Version,EnergyPlus, Version 8.7.0-ae053cab77, IDD_Version 8.7.0",
    "   ************* IDF Context for following error/warning message:",
    "   ************* Note -- lines truncated at 300 characters, if necessary...",
    "   *************    224 BuildingSurface:Detailed,",
    "   ************* indicated Name=Surface 25",
    "   ************* Only last 3 lines before error line shown.....",
    "   *************    225   Surface 25,                             !- Name",
    "   *************    226   Floor,                                  !- Surface Type",
    "   *************    227   ,                                       !- Construction Name",
    "   ** Severe  ** IP: IDF line~227 Error detected in Object=BUILDINGSURFACE:DETAILED, name=SURFACE 25",
    "   **   ~~~   ** Field [Construction Name] is required but was blank",
    "   ************* IDF Context for following error/warning message:",
    "   ************* Note -- lines truncated at 300 characters, if necessary...",
    "   *************    240 BuildingSurface:Detailed,",
    "   ************* indicated Name=Surface 26",
    "   ************* Only last 3 lines before error line shown.....",
    "   *************    241   Surface 26,                             !- Name",
    "   *************    242   Wall,                                   !- Surface Type",
    "   *************    243   ,                                       !- Construction Name",
    "   ** Severe  ** IP: IDF line~243 Error detected in Object=BUILDINGSURFACE:DETAILED, name=SURFACE 26",
    "   **   ~~~   ** Field [Construction Name] is required but was blank",
    "   ************* IDF Context for following error/warning message:",
    "   ************* Note -- lines truncated at 300 characters, if necessary...",
    "   *************    256 BuildingSurface:Detailed,",
    "   ************* indicated Name=Surface 27",
    "   ************* Only last 3 lines before error line shown.....",
    "   *************    257   Surface 27,                             !- Name",
    "   *************    258   Wall,                                   !- Surface Type",
    "   *************    259   ,                                       !- Construction Name",
    "   ** Severe  ** IP: IDF line~259 Error detected in Object=BUILDINGSURFACE:DETAILED, name=SURFACE 27",
    "   **   ~~~   ** Field [Construction Name] is required but was blank",
    "   ************* IDF Context for following error/warning message:",
    "   ************* Note -- lines truncated at 300 characters, if necessary...",
    "   *************    272 BuildingSurface:Detailed,",
    "   ************* indicated Name=Surface 28",
    "   ************* Only last 3 lines before error line shown.....",
    "   *************    273   Surface 28,                             !- Name",
    "   *************    274   Wall,                                   !- Surface Type",
    "   *************    275   ,                                       !- Construction Name",
    "   ** Severe  ** IP: IDF line~275 Error detected in Object=BUILDINGSURFACE:DETAILED, name=SURFACE 28",
    "   **   ~~~   ** Field [Construction Name] is required but was blank",
    "   ************* IDF Context for following error/warning message:",
    "   ************* Note -- lines truncated at 300 characters, if necessary...",
    "   *************    288 BuildingSurface:Detailed,",
    "   ************* indicated Name=Surface 29",
    "   ************* Only last 3 lines before error line shown.....",
    "   *************    289   Surface 29,                             !- Name",
    "   *************    290   Wall,                                   !- Surface Type",
    "   *************    291   ,                                       !- Construction Name",
    "   ** Severe  ** IP: IDF line~291 Error detected in Object=BUILDINGSURFACE:DETAILED, name=SURFACE 29",
    "   **   ~~~   ** Field [Construction Name] is required but was blank",
    "   ************* IDF Context for following error/warning message:",
    "   ************* Note -- lines truncated at 300 characters, if necessary...",
    "   *************    304 BuildingSurface:Detailed,",
    "   ************* indicated Name=Surface 30",
    "   ************* Only last 3 lines before error line shown.....",
    "   *************    305   Surface 30,                             !- Name",
    "   *************    306   Ceiling,                                !- Surface Type",
    "   *************    307   ,                                       !- Construction Name",
    "   ** Severe  ** IP: IDF line~307 Error detected in Object=BUILDINGSURFACE:DETAILED, name=SURFACE 30",
    "   **   ~~~   ** Field [Construction Name] is required but was blank",
    "   ************* IDF Context for following error/warning message:",
    "   ************* Note -- lines truncated at 300 characters, if necessary...",
    "   *************    470 BuildingSurface:Detailed,",
    "   ************* indicated Name=Surface 13",
    "   ************* Only last 3 lines before error line shown.....",
    "   *************    471   Surface 13,                             !- Name",
    "   *************    472   Floor,                                  !- Surface Type",
    "   *************    473   ,                                       !- Construction Name",
    "   ** Severe  ** IP: IDF line~473 Error detected in Object=BUILDINGSURFACE:DETAILED, name=SURFACE 13",
    "   **   ~~~   ** Field [Construction Name] is required but was blank",
    "   ************* IDF Context for following error/warning message:",
    "   ************* Note -- lines truncated at 300 characters, if necessary...",
    "   *************    486 BuildingSurface:Detailed,",
    "   ************* indicated Name=Surface 14",
    "   ************* Only last 3 lines before error line shown.....",
    "   *************    487   Surface 14,                             !- Name",
    "   *************    488   Wall,                                   !- Surface Type",
    "   *************    489   ,                                       !- Construction Name",
    "   ** Severe  ** IP: IDF line~489 Error detected in Object=BUILDINGSURFACE:DETAILED, name=SURFACE 14",
    "   **   ~~~   ** Field [Construction Name] is required but was blank",
    "   ************* IDF Context for following error/warning message:",
    "   ************* Note -- lines truncated at 300 characters, if necessary...",
    "   *************    502 FenestrationSurface:Detailed,",
    "   ************* indicated Name=Sub Surface 8",
    "   ************* Only last 3 lines before error line shown.....",
    "   *************    503   Sub Surface 8,                          !- Name",
    "   *************    504   Window,                                 !- Surface Type",
    "   *************    505   ,                                       !- Construction Name",
    "   ** Severe  ** IP: IDF line~505 Error detected in Object=FENESTRATIONSURFACE:DETAILED, name=SUB SURFACE 8",
    "   **   ~~~   ** Field [Construction Name] is required but was blank",
    "   ************* IDF Context for following error/warning message:",
    "   ************* Note -- lines truncated at 300 characters, if necessary...",
    "   *************    518 BuildingSurface:Detailed,",
    "   ************* indicated Name=Surface 15",
    "   ************* Only last 3 lines before error line shown.....",
    "   *************    519   Surface 15,                             !- Name",
    "   *************    520   Wall,                                   !- Surface Type",
    "   *************    521   ,                                       !- Construction Name",
    "   ** Severe  ** IP: IDF line~521 Error detected in Object=BUILDINGSURFACE:DETAILED, name=SURFACE 15",
    "   **   ~~~   ** Field [Construction Name] is required but was blank",
    "   ************* IDF Context for following error/warning message:",
    "   ************* Note -- lines truncated at 300 characters, if necessary...",
    "   *************    534 BuildingSurface:Detailed,",
    "   ************* indicated Name=Surface 16",
    "   ************* Only last 3 lines before error line shown.....",
    "   *************    535   Surface 16,                             !- Name",
    "   *************    536   Wall,                                   !- Surface Type",
    "   *************    537   ,                                       !- Construction Name",
    "   ** Severe  ** IP: IDF line~537 Error detected in Object=BUILDINGSURFACE:DETAILED, name=SURFACE 16",
    "   **   ~~~   ** Field [Construction Name] is required but was blank",
    "   ************* IDF Context for following error/warning message:",
    "   ************* Note -- lines truncated at 300 characters, if necessary...",
    "   *************    550 BuildingSurface:Detailed,",
    "   ************* indicated Name=Surface 17",
    "   ************* Only last 3 lines before error line shown.....",
    "   *************    551   Surface 17,                             !- Name",
    "   *************    552   Wall,                                   !- Surface Type",
    "   *************    553   ,                                       !- Construction Name",
    "   ** Severe  ** IP: IDF line~553 Error detected in Object=BUILDINGSURFACE:DETAILED, name=SURFACE 17",
    "   **   ~~~   ** Field [Construction Name] is required but was blank",
    "   ************* IDF Context for following error/warning message:",
    "   ************* Note -- lines truncated at 300 characters, if necessary...",
    "   *************    566 BuildingSurface:Detailed,",
    "   ************* indicated Name=Surface 18",
    "   ************* Only last 3 lines before error line shown.....",
    "   *************    567   Surface 18,                             !- Name",
    "   *************    568   Ceiling,                                !- Surface Type",
    "   *************    569   ,                                       !- Construction Name",
    "   ** Severe  ** IP: IDF line~569 Error detected in Object=BUILDINGSURFACE:DETAILED, name=SURFACE 18",
    "   **   ~~~   ** Field [Construction Name] is required but was blank",
    "   ************* IDF Context for following error/warning message:",
    "   ************* Note -- lines truncated at 300 characters, if necessary...",
    "   *************    664 BuildingSurface:Detailed,",
    "   ************* indicated Name=Surface 10",
    "   ************* Only last 3 lines before error line shown.....",
    "   *************    665   Surface 10,                             !- Name",
    "   *************    666   Wall,                                   !- Surface Type",
    "   *************    667   ,                                       !- Construction Name",
    "   ** Severe  ** IP: IDF line~667 Error detected in Object=BUILDINGSURFACE:DETAILED, name=SURFACE 10",
    "   **   ~~~   ** Field [Construction Name] is required but was blank",
    "   ************* IDF Context for following error/warning message:",
    "   ************* Note -- lines truncated at 300 characters, if necessary...",
    "   *************    680 BuildingSurface:Detailed,",
    "   ************* indicated Name=Surface 11",
    "   ************* Only last 3 lines before error line shown.....",
    "   *************    681   Surface 11,                             !- Name",
    "   *************    682   Wall,                                   !- Surface Type",
    "   *************    683   ,                                       !- Construction Name",
    "   ** Severe  ** IP: IDF line~683 Error detected in Object=BUILDINGSURFACE:DETAILED, name=SURFACE 11",
    "   **   ~~~   ** Field [Construction Name] is required but was blank",
    "   ************* IDF Context for following error/warning message:",
    "   ************* Note -- lines truncated at 300 characters, if necessary...",
    "   *************    696 BuildingSurface:Detailed,",
    "   ************* indicated Name=Surface 12",
    "   ************* Only last 3 lines before error line shown.....",
    "   *************    697   Surface 12,                             !- Name",
    "   *************    698   Ceiling,                                !- Surface Type",
    "   *************    699   ,                                       !- Construction Name",
    "   ** Severe  ** IP: IDF line~699 Error detected in Object=BUILDINGSURFACE:DETAILED, name=SURFACE 12",
    "   **   ~~~   ** Field [Construction Name] is required but was blank",
    "   ************* IDF Context for following error/warning message:",
    "   ************* Note -- lines truncated at 300 characters, if necessary...",
    "   *************    712 BuildingSurface:Detailed,",
    "   ************* indicated Name=Surface 7",
    "   ************* Only last 3 lines before error line shown.....",
    "   *************    713   Surface 7,                              !- Name",
    "   *************    714   Floor,                                  !- Surface Type",
    "   *************    715   ,                                       !- Construction Name",
    "   ** Severe  ** IP: IDF line~715 Error detected in Object=BUILDINGSURFACE:DETAILED, name=SURFACE 7",
    "   **   ~~~   ** Field [Construction Name] is required but was blank",
    "   ************* IDF Context for following error/warning message:",
    "   ************* Note -- lines truncated at 300 characters, if necessary...",
    "   *************    728 BuildingSurface:Detailed,",
    "   ************* indicated Name=Surface 8",
    "   ************* Only last 3 lines before error line shown.....",
    "   *************    729   Surface 8,                              !- Name",
    "   *************    730   Wall,                                   !- Surface Type",
    "   *************    731   ,                                       !- Construction Name",
    "   ** Severe  ** IP: IDF line~731 Error detected in Object=BUILDINGSURFACE:DETAILED, name=SURFACE 8",
    "   **   ~~~   ** Field [Construction Name] is required but was blank",
    "   ************* IDF Context for following error/warning message:",
    "   ************* Note -- lines truncated at 300 characters, if necessary...",
    "   *************    744 FenestrationSurface:Detailed,",
    "   ************* indicated Name=Sub Surface 5",
    "   ************* Only last 3 lines before error line shown.....",
    "   *************    745   Sub Surface 5,                          !- Name",
    "   *************    746   Window,                                 !- Surface Type",
    "   *************    747   ,                                       !- Construction Name",
    "   ** Severe  ** IP: IDF line~747 Error detected in Object=FENESTRATIONSURFACE:DETAILED, name=SUB SURFACE 5",
    "   **   ~~~   ** Field [Construction Name] is required but was blank",
    "   ************* IDF Context for following error/warning message:",
    "   ************* Note -- lines truncated at 300 characters, if necessary...",
    "   *************    760 BuildingSurface:Detailed,",
    "   ************* indicated Name=Surface 9",
    "   ************* Only last 3 lines before error line shown.....",
    "   *************    761   Surface 9,                              !- Name",
    "   *************    762   Wall,                                   !- Surface Type",
    "   *************    763   ,                                       !- Construction Name",
    "   ** Severe  ** IP: IDF line~763 Error detected in Object=BUILDINGSURFACE:DETAILED, name=SURFACE 9",
    "   **   ~~~   ** Field [Construction Name] is required but was blank",
    "   ************* IDF Context for following error/warning message:",
    "   ************* Note -- lines truncated at 300 characters, if necessary...",
    "   *************    857 BuildingSurface:Detailed,",
    "   ************* indicated Name=Surface 19",
    "   ************* Only last 3 lines before error line shown.....",
    "   *************    858   Surface 19,                             !- Name",
    "   *************    859   Floor,                                  !- Surface Type",
    "   *************    860   ,                                       !- Construction Name",
    "   ** Severe  ** IP: IDF line~860 Error detected in Object=BUILDINGSURFACE:DETAILED, name=SURFACE 19",
    "   **   ~~~   ** Field [Construction Name] is required but was blank",
    "   ************* IDF Context for following error/warning message:",
    "   ************* Note -- lines truncated at 300 characters, if necessary...",
    "   *************    873 BuildingSurface:Detailed,",
    "   ************* indicated Name=Surface 20",
    "   ************* Only last 3 lines before error line shown.....",
    "   *************    874   Surface 20,                             !- Name",
    "   *************    875   Wall,                                   !- Surface Type",
    "   *************    876   ,                                       !- Construction Name",
    "   ** Severe  ** IP: IDF line~876 Error detected in Object=BUILDINGSURFACE:DETAILED, name=SURFACE 20",
    "   **   ~~~   ** Field [Construction Name] is required but was blank",
    "   ************* IDF Context for following error/warning message:",
    "   ************* Note -- lines truncated at 300 characters, if necessary...",
    "   *************    889 FenestrationSurface:Detailed,",
    "   ************* indicated Name=Sub Surface 7",
    "   ************* Only last 3 lines before error line shown.....",
    "   *************    890   Sub Surface 7,                          !- Name",
    "   *************    891   Window,                                 !- Surface Type",
    "   *************    892   ,                                       !- Construction Name",
    "   ** Severe  ** IP: IDF line~892 Error detected in Object=FENESTRATIONSURFACE:DETAILED, name=SUB SURFACE 7",
    "   **   ~~~   ** Field [Construction Name] is required but was blank",
    "   ************* IDF Context for following error/warning message:",
    "   ************* Note -- lines truncated at 300 characters, if necessary...",
    "   *************    905 BuildingSurface:Detailed,",
    "   ************* indicated Name=Surface 21",
    "   ************* Only last 3 lines before error line shown.....",
    "   *************    906   Surface 21,                             !- Name",
    "   *************    907   Wall,                                   !- Surface Type",
    "   *************    908   ,                                       !- Construction Name",
    "   ** Severe  ** IP: IDF line~908 Error detected in Object=BUILDINGSURFACE:DETAILED, name=SURFACE 21",
    "   **   ~~~   ** Field [Construction Name] is required but was blank",
    "   ************* IDF Context for following error/warning message:",
    "   ************* Note -- lines truncated at 300 characters, if necessary...",
    "   *************    921 BuildingSurface:Detailed,",
    "   ************* indicated Name=Surface 22",
    "   ************* Only last 3 lines before error line shown.....",
    "   *************    922   Surface 22,                             !- Name",
    "   *************    923   Wall,                                   !- Surface Type",
    "   *************    924   ,                                       !- Construction Name",
    "   ** Severe  ** IP: IDF line~924 Error detected in Object=BUILDINGSURFACE:DETAILED, name=SURFACE 22",
    "   **   ~~~   ** Field [Construction Name] is required but was blank",
    "   ************* IDF Context for following error/warning message:",
    "   ************* Note -- lines truncated at 300 characters, if necessary...",
    "   *************    937 BuildingSurface:Detailed,",
    "   ************* indicated Name=Surface 23",
    "   ************* Only last 3 lines before error line shown.....",
    "   *************    938   Surface 23,                             !- Name",
    "   *************    939   Wall,                                   !- Surface Type",
    "   *************    940   ,                                       !- Construction Name",
    "   ** Severe  ** IP: IDF line~940 Error detected in Object=BUILDINGSURFACE:DETAILED, name=SURFACE 23",
    "   **   ~~~   ** Field [Construction Name] is required but was blank",
    "   ************* IDF Context for following error/warning message:",
    "   ************* Note -- lines truncated at 300 characters, if necessary...",
    "   *************    953 BuildingSurface:Detailed,",
    "   ************* indicated Name=Surface 24",
    "   ************* Only last 3 lines before error line shown.....",
    "   *************    954   Surface 24,                             !- Name",
    "   *************    955   Ceiling,                                !- Surface Type",
    "   *************    956   ,                                       !- Construction Name",
    "   ** Severe  ** IP: IDF line~956 Error detected in Object=BUILDINGSURFACE:DETAILED, name=SURFACE 24",
    "   **   ~~~   ** Field [Construction Name] is required but was blank",
    "   ************* IDF Context for following error/warning message:",
    "   ************* Note -- lines truncated at 300 characters, if necessary...",
    "   *************   1052 BuildingSurface:Detailed,",
    "   ************* indicated Name=Surface 1",
    "   ************* Only last 3 lines before error line shown.....",
    "   *************   1053   Surface 1,                              !- Name",
    "   *************   1054   Floor,                                  !- Surface Type",
    "   *************   1055   ,                                       !- Construction Name",
    "   ** Severe  ** IP: IDF line~1055 Error detected in Object=BUILDINGSURFACE:DETAILED, name=SURFACE 1",
    "   **   ~~~   ** Field [Construction Name] is required but was blank",
    "   ************* IDF Context for following error/warning message:",
    "   ************* Note -- lines truncated at 300 characters, if necessary...",
    "   *************   1068 BuildingSurface:Detailed,",
    "   ************* indicated Name=Surface 2",
    "   ************* Only last 3 lines before error line shown.....",
    "   *************   1069   Surface 2,                              !- Name",
    "   *************   1070   Wall,                                   !- Surface Type",
    "   *************   1071   ,                                       !- Construction Name",
    "   ** Severe  ** IP: IDF line~1071 Error detected in Object=BUILDINGSURFACE:DETAILED, name=SURFACE 2",
    "   **   ~~~   ** Field [Construction Name] is required but was blank",
    "   ************* IDF Context for following error/warning message:",
    "   ************* Note -- lines truncated at 300 characters, if necessary...",
    "   *************   1084 FenestrationSurface:Detailed,",
    "   ************* indicated Name=Sub Surface 3",
    "   ************* Only last 3 lines before error line shown.....",
    "   *************   1085   Sub Surface 3,                          !- Name",
    "   *************   1086   Window,                                 !- Surface Type",
    "   *************   1087   ,                                       !- Construction Name",
    "   ** Severe  ** IP: IDF line~1087 Error detected in Object=FENESTRATIONSURFACE:DETAILED, name=SUB SURFACE 3",
    "   **   ~~~   ** Field [Construction Name] is required but was blank",
    "   ************* IDF Context for following error/warning message:",
    "   ************* Note -- lines truncated at 300 characters, if necessary...",
    "   *************   1100 BuildingSurface:Detailed,",
    "   ************* indicated Name=Surface 3",
    "   ************* Only last 3 lines before error line shown.....",
    "   *************   1101   Surface 3,                              !- Name",
    "   *************   1102   Wall,                                   !- Surface Type",
    "   *************   1103   ,                                       !- Construction Name",
    "   ** Severe  ** IP: IDF line~1103 Error detected in Object=BUILDINGSURFACE:DETAILED, name=SURFACE 3",
    "   **   ~~~   ** Field [Construction Name] is required but was blank",
    "   ************* IDF Context for following error/warning message:",
    "   ************* Note -- lines truncated at 300 characters, if necessary...",
    "   *************   1116 BuildingSurface:Detailed,",
    "   ************* indicated Name=Surface 4",
    "   ************* Only last 3 lines before error line shown.....",
    "   *************   1117   Surface 4,                              !- Name",
    "   *************   1118   Wall,                                   !- Surface Type",
    "   *************   1119   ,                                       !- Construction Name",
    "   ** Severe  ** IP: IDF line~1119 Error detected in Object=BUILDINGSURFACE:DETAILED, name=SURFACE 4",
    "   **   ~~~   ** Field [Construction Name] is required but was blank",
    "   ************* IDF Context for following error/warning message:",
    "   ************* Note -- lines truncated at 300 characters, if necessary...",
    "   *************   1132 BuildingSurface:Detailed,",
    "   ************* indicated Name=Surface 5",
    "   ************* Only last 3 lines before error line shown.....",
    "   *************   1133   Surface 5,                              !- Name",
    "   *************   1134   Wall,                                   !- Surface Type",
    "   *************   1135   ,                                       !- Construction Name",
    "   ** Severe  ** IP: IDF line~1135 Error detected in Object=BUILDINGSURFACE:DETAILED, name=SURFACE 5",
    "   **   ~~~   ** Field [Construction Name] is required but was blank",
    "   ************* IDF Context for following error/warning message:",
    "   ************* Note -- lines truncated at 300 characters, if necessary...",
    "   *************   1148 BuildingSurface:Detailed,",
    "   ************* indicated Name=Surface 6",
    "   ************* Only last 3 lines before error line shown.....",
    "   *************   1149   Surface 6,                              !- Name",
    "   *************   1150   Ceiling,                                !- Surface Type",
    "   *************   1151   ,                                       !- Construction Name",
    "   ** Severe  ** IP: IDF line~1151 Error detected in Object=BUILDINGSURFACE:DETAILED, name=SURFACE 6",
    "   **   ~~~   ** Field [Construction Name] is required but was blank",
    "   ************* IDF Context for following error/warning message:",
    "   ************* Note -- lines truncated at 300 characters, if necessary...",
    "   *************   1249 BuildingSurface:Detailed,",
    "   ************* indicated Name=Surface 55",
    "   ************* Only last 3 lines before error line shown.....",
    "   *************   1250   Surface 55,                             !- Name",
    "   *************   1251   Floor,                                  !- Surface Type",
    "   *************   1252   ,                                       !- Construction Name",
    "   ** Severe  ** IP: IDF line~1252 Error detected in Object=BUILDINGSURFACE:DETAILED, name=SURFACE 55",
    "   **   ~~~   ** Field [Construction Name] is required but was blank",
    "   ************* IDF Context for following error/warning message:",
    "   ************* Note -- lines truncated at 300 characters, if necessary...",
    "   *************   1265 BuildingSurface:Detailed,",
    "   ************* indicated Name=Surface 56",
    "   ************* Only last 3 lines before error line shown.....",
    "   *************   1266   Surface 56,                             !- Name",
    "   *************   1267   Wall,                                   !- Surface Type",
    "   *************   1268   ,                                       !- Construction Name",
    "   ** Severe  ** IP: IDF line~1268 Error detected in Object=BUILDINGSURFACE:DETAILED, name=SURFACE 56",
    "   **   ~~~   ** Field [Construction Name] is required but was blank",
    "   ************* IDF Context for following error/warning message:",
    "   ************* Note -- lines truncated at 300 characters, if necessary...",
    "   *************   1281 BuildingSurface:Detailed,",
    "   ************* indicated Name=Surface 57",
    "   ************* Only last 3 lines before error line shown.....",
    "   *************   1282   Surface 57,                             !- Name",
    "   *************   1283   Wall,                                   !- Surface Type",
    "   *************   1284   ,                                       !- Construction Name",
    "   ** Severe  ** IP: IDF line~1284 Error detected in Object=BUILDINGSURFACE:DETAILED, name=SURFACE 57",
    "   **   ~~~   ** Field [Construction Name] is required but was blank",
    "   ************* IDF Context for following error/warning message:",
    "   ************* Note -- lines truncated at 300 characters, if necessary...",
    "   *************   1297 BuildingSurface:Detailed,",
    "   ************* indicated Name=Surface 58",
    "   ************* Only last 3 lines before error line shown.....",
    "   *************   1298   Surface 58,                             !- Name",
    "   *************   1299   Wall,                                   !- Surface Type",
    "   *************   1300   ,                                       !- Construction Name",
    "   ** Severe  ** IP: IDF line~1300 Error detected in Object=BUILDINGSURFACE:DETAILED, name=SURFACE 58",
    "   **   ~~~   ** Field [Construction Name] is required but was blank",
    "   ************* IDF Context for following error/warning message:",
    "   ************* Note -- lines truncated at 300 characters, if necessary...",
    "   *************   1313 BuildingSurface:Detailed,",
    "   ************* indicated Name=Surface 59",
    "   ************* Only last 3 lines before error line shown.....",
    "   *************   1314   Surface 59,                             !- Name",
    "   *************   1315   Wall,                                   !- Surface Type",
    "   *************   1316   ,                                       !- Construction Name",
    "   ** Severe  ** IP: IDF line~1316 Error detected in Object=BUILDINGSURFACE:DETAILED, name=SURFACE 59",
    "   **   ~~~   ** Field [Construction Name] is required but was blank",
    "   ************* IDF Context for following error/warning message:",
    "   ************* Note -- lines truncated at 300 characters, if necessary...",
    "   *************   1329 BuildingSurface:Detailed,",
    "   ************* indicated Name=Surface 60",
    "   ************* Only last 3 lines before error line shown.....",
    "   *************   1330   Surface 60,                             !- Name",
    "   *************   1331   Roof,                                   !- Surface Type",
    "   *************   1332   ,                                       !- Construction Name",
    "   ** Severe  ** IP: IDF line~1332 Error detected in Object=BUILDINGSURFACE:DETAILED, name=SURFACE 60",
    "   **   ~~~   ** Field [Construction Name] is required but was blank",
    "   ************* IDF Context for following error/warning message:",
    "   ************* Note -- lines truncated at 300 characters, if necessary...",
    "   *************   1413 BuildingSurface:Detailed,",
    "   ************* indicated Name=Surface 43",
    "   ************* Only last 3 lines before error line shown.....",
    "   *************   1414   Surface 43,                             !- Name",
    "   *************   1415   Floor,                                  !- Surface Type",
    "   *************   1416   ,                                       !- Construction Name",
    "   ** Severe  ** IP: IDF line~1416 Error detected in Object=BUILDINGSURFACE:DETAILED, name=SURFACE 43",
    "   **   ~~~   ** Field [Construction Name] is required but was blank",
    "   ************* IDF Context for following error/warning message:",
    "   ************* Note -- lines truncated at 300 characters, if necessary...",
    "   *************   1429 BuildingSurface:Detailed,",
    "   ************* indicated Name=Surface 44",
    "   ************* Only last 3 lines before error line shown.....",
    "   *************   1430   Surface 44,                             !- Name",
    "   *************   1431   Wall,                                   !- Surface Type",
    "   *************   1432   ,                                       !- Construction Name",
    "   ** Severe  ** IP: IDF line~1432 Error detected in Object=BUILDINGSURFACE:DETAILED, name=SURFACE 44",
    "   **   ~~~   ** Field [Construction Name] is required but was blank",
    "   ************* IDF Context for following error/warning message:",
    "   ************* Note -- lines truncated at 300 characters, if necessary...",
    "   *************   1445 FenestrationSurface:Detailed,",
    "   ************* indicated Name=Sub Surface 4",
    "   ************* Only last 3 lines before error line shown.....",
    "   *************   1446   Sub Surface 4,                          !- Name",
    "   *************   1447   Window,                                 !- Surface Type",
    "   *************   1448   ,                                       !- Construction Name",
    "   ** Severe  ** IP: IDF line~1448 Error detected in Object=FENESTRATIONSURFACE:DETAILED, name=SUB SURFACE 4",
    "   **   ~~~   ** Field [Construction Name] is required but was blank",
    "   ************* IDF Context for following error/warning message:",
    "   ************* Note -- lines truncated at 300 characters, if necessary...",
    "   *************   1461 BuildingSurface:Detailed,",
    "   ************* indicated Name=Surface 45",
    "   ************* Only last 3 lines before error line shown.....",
    "   *************   1462   Surface 45,                             !- Name",
    "   *************   1463   Wall,                                   !- Surface Type",
    "   *************   1464   ,                                       !- Construction Name",
    "   ** Severe  ** IP: IDF line~1464 Error detected in Object=BUILDINGSURFACE:DETAILED, name=SURFACE 45",
    "   **   ~~~   ** Field [Construction Name] is required but was blank",
    "   ************* IDF Context for following error/warning message:",
    "   ************* Note -- lines truncated at 300 characters, if necessary...",
    "   *************   1477 BuildingSurface:Detailed,",
    "   ************* indicated Name=Surface 46",
    "   ************* Only last 3 lines before error line shown.....",
    "   *************   1478   Surface 46,                             !- Name",
    "   *************   1479   Wall,                                   !- Surface Type",
    "   *************   1480   ,                                       !- Construction Name",
    "   ** Severe  ** IP: IDF line~1480 Error detected in Object=BUILDINGSURFACE:DETAILED, name=SURFACE 46",
    "   **   ~~~   ** Field [Construction Name] is required but was blank",
    "   ************* IDF Context for following error/warning message:",
    "   ************* Note -- lines truncated at 300 characters, if necessary...",
    "   *************   1493 BuildingSurface:Detailed,",
    "   ************* indicated Name=Surface 47",
    "   ************* Only last 3 lines before error line shown.....",
    "   *************   1494   Surface 47,                             !- Name",
    "   *************   1495   Wall,                                   !- Surface Type",
    "   *************   1496   ,                                       !- Construction Name",
    "   ** Severe  ** IP: IDF line~1496 Error detected in Object=BUILDINGSURFACE:DETAILED, name=SURFACE 47",
    "   **   ~~~   ** Field [Construction Name] is required but was blank",
    "   ************* IDF Context for following error/warning message:",
    "   ************* Note -- lines truncated at 300 characters, if necessary...",
    "   *************   1509 BuildingSurface:Detailed,",
    "   ************* indicated Name=Surface 48",
    "   ************* Only last 3 lines before error line shown.....",
    "   *************   1510   Surface 48,                             !- Name",
    "   *************   1511   Roof,                                   !- Surface Type",
    "   *************   1512   ,                                       !- Construction Name",
    "   ** Severe  ** IP: IDF line~1512 Error detected in Object=BUILDINGSURFACE:DETAILED, name=SURFACE 48",
    "   **   ~~~   ** Field [Construction Name] is required but was blank",
    "   ************* IDF Context for following error/warning message:",
    "   ************* Note -- lines truncated at 300 characters, if necessary...",
    "   *************   1593 BuildingSurface:Detailed,",
    "   ************* indicated Name=Surface 37",
    "   ************* Only last 3 lines before error line shown.....",
    "   *************   1594   Surface 37,                             !- Name",
    "   *************   1595   Floor,                                  !- Surface Type",
    "   *************   1596   ,                                       !- Construction Name",
    "   ** Severe  ** IP: IDF line~1596 Error detected in Object=BUILDINGSURFACE:DETAILED, name=SURFACE 37",
    "   **   ~~~   ** Field [Construction Name] is required but was blank",
    "   ************* IDF Context for following error/warning message:",
    "   ************* Note -- lines truncated at 300 characters, if necessary...",
    "   *************   1609 BuildingSurface:Detailed,",
    "   ************* indicated Name=Surface 38",
    "   ************* Only last 3 lines before error line shown.....",
    "   *************   1610   Surface 38,                             !- Name",
    "   *************   1611   Wall,                                   !- Surface Type",
    "   *************   1612   ,                                       !- Construction Name",
    "   ** Severe  ** IP: IDF line~1612 Error detected in Object=BUILDINGSURFACE:DETAILED, name=SURFACE 38",
    "   **   ~~~   ** Field [Construction Name] is required but was blank",
    "   ************* IDF Context for following error/warning message:",
    "   ************* Note -- lines truncated at 300 characters, if necessary...",
    "   *************   1625 FenestrationSurface:Detailed,",
    "   ************* indicated Name=Sub Surface 1",
    "   ************* Only last 3 lines before error line shown.....",
    "   *************   1626   Sub Surface 1,                          !- Name",
    "   *************   1627   Window,                                 !- Surface Type",
    "   *************   1628   ,                                       !- Construction Name",
    "   ** Severe  ** IP: IDF line~1628 Error detected in Object=FENESTRATIONSURFACE:DETAILED, name=SUB SURFACE 1",
    "   **   ~~~   ** Field [Construction Name] is required but was blank",
    "   ************* IDF Context for following error/warning message:",
    "   ************* Note -- lines truncated at 300 characters, if necessary...",
    "   *************   1641 BuildingSurface:Detailed,",
    "   ************* indicated Name=Surface 39",
    "   ************* Only last 3 lines before error line shown.....",
    "   *************   1642   Surface 39,                             !- Name",
    "   *************   1643   Wall,                                   !- Surface Type",
    "   *************   1644   ,                                       !- Construction Name",
    "   ** Severe  ** IP: IDF line~1644 Error detected in Object=BUILDINGSURFACE:DETAILED, name=SURFACE 39",
    "   **   ~~~   ** Field [Construction Name] is required but was blank",
    "   ************* IDF Context for following error/warning message:",
    "   ************* Note -- lines truncated at 300 characters, if necessary...",
    "   *************   1657 BuildingSurface:Detailed,",
    "   ************* indicated Name=Surface 40",
    "   ************* Only last 3 lines before error line shown.....",
    "   *************   1658   Surface 40,                             !- Name",
    "   *************   1659   Wall,                                   !- Surface Type",
    "   *************   1660   ,                                       !- Construction Name",
    "   ** Severe  ** IP: IDF line~1660 Error detected in Object=BUILDINGSURFACE:DETAILED, name=SURFACE 40",
    "   **   ~~~   ** Field [Construction Name] is required but was blank",
    "   ************* IDF Context for following error/warning message:",
    "   ************* Note -- lines truncated at 300 characters, if necessary...",
    "   *************   1673 BuildingSurface:Detailed,",
    "   ************* indicated Name=Surface 41",
    "   ************* Only last 3 lines before error line shown.....",
    "   *************   1674   Surface 41,                             !- Name",
    "   *************   1675   Wall,                                   !- Surface Type",
    "   *************   1676   ,                                       !- Construction Name",
    "   ** Severe  ** IP: IDF line~1676 Error detected in Object=BUILDINGSURFACE:DETAILED, name=SURFACE 41",
    "   **   ~~~   ** Field [Construction Name] is required but was blank",
    "   ************* IDF Context for following error/warning message:",
    "   ************* Note -- lines truncated at 300 characters, if necessary...",
    "   *************   1689 BuildingSurface:Detailed,",
    "   ************* indicated Name=Surface 42",
    "   ************* Only last 3 lines before error line shown.....",
    "   *************   1690   Surface 42,                             !- Name",
    "   *************   1691   Roof,                                   !- Surface Type",
    "   *************   1692   ,                                       !- Construction Name",
    "   ** Severe  ** IP: IDF line~1692 Error detected in Object=BUILDINGSURFACE:DETAILED, name=SURFACE 42",
    "   **   ~~~   ** Field [Construction Name] is required but was blank",
    "   ************* IDF Context for following error/warning message:",
    "   ************* Note -- lines truncated at 300 characters, if necessary...",
    "   *************   1773 BuildingSurface:Detailed,",
    "   ************* indicated Name=Surface 49",
    "   ************* Only last 3 lines before error line shown.....",
    "   *************   1774   Surface 49,                             !- Name",
    "   *************   1775   Floor,                                  !- Surface Type",
    "   *************   1776   ,                                       !- Construction Name",
    "   ** Severe  ** IP: IDF line~1776 Error detected in Object=BUILDINGSURFACE:DETAILED, name=SURFACE 49",
    "   **   ~~~   ** Field [Construction Name] is required but was blank",
    "   ************* IDF Context for following error/warning message:",
    "   ************* Note -- lines truncated at 300 characters, if necessary...",
    "   *************   1789 BuildingSurface:Detailed,",
    "   ************* indicated Name=Surface 50",
    "   ************* Only last 3 lines before error line shown.....",
    "   *************   1790   Surface 50,                             !- Name",
    "   *************   1791   Wall,                                   !- Surface Type",
    "   *************   1792   ,                                       !- Construction Name",
    "   ** Severe  ** IP: IDF line~1792 Error detected in Object=BUILDINGSURFACE:DETAILED, name=SURFACE 50",
    "   **   ~~~   ** Field [Construction Name] is required but was blank",
    "   ************* IDF Context for following error/warning message:",
    "   ************* Note -- lines truncated at 300 characters, if necessary...",
    "   *************   1805 FenestrationSurface:Detailed,",
    "   ************* indicated Name=Sub Surface 6",
    "   ************* Only last 3 lines before error line shown.....",
    "   *************   1806   Sub Surface 6,                          !- Name",
    "   *************   1807   Window,                                 !- Surface Type",
    "   *************   1808   ,                                       !- Construction Name",
    "   ** Severe  ** IP: IDF line~1808 Error detected in Object=FENESTRATIONSURFACE:DETAILED, name=SUB SURFACE 6",
    "   **   ~~~   ** Field [Construction Name] is required but was blank",
    "   ************* IDF Context for following error/warning message:",
    "   ************* Note -- lines truncated at 300 characters, if necessary...",
    "   *************   1821 BuildingSurface:Detailed,",
    "   ************* indicated Name=Surface 51",
    "   ************* Only last 3 lines before error line shown.....",
    "   *************   1822   Surface 51,                             !- Name",
    "   *************   1823   Wall,                                   !- Surface Type",
    "   *************   1824   ,                                       !- Construction Name",
    "   ** Severe  ** IP: IDF line~1824 Error detected in Object=BUILDINGSURFACE:DETAILED, name=SURFACE 51",
    "   **   ~~~   ** Field [Construction Name] is required but was blank",
    "   ************* IDF Context for following error/warning message:",
    "   ************* Note -- lines truncated at 300 characters, if necessary...",
    "   *************   1837 BuildingSurface:Detailed,",
    "   ************* indicated Name=Surface 52",
    "   ************* Only last 3 lines before error line shown.....",
    "   *************   1838   Surface 52,                             !- Name",
    "   *************   1839   Wall,                                   !- Surface Type",
    "   *************   1840   ,                                       !- Construction Name",
    "   ** Severe  ** IP: IDF line~1840 Error detected in Object=BUILDINGSURFACE:DETAILED, name=SURFACE 52",
    "   **   ~~~   ** Field [Construction Name] is required but was blank",
    "   ************* IDF Context for following error/warning message:",
    "   ************* Note -- lines truncated at 300 characters, if necessary...",
    "   *************   1853 BuildingSurface:Detailed,",
    "   ************* indicated Name=Surface 53",
    "   ************* Only last 3 lines before error line shown.....",
    "   *************   1854   Surface 53,                             !- Name",
    "   *************   1855   Wall,                                   !- Surface Type",
    "   *************   1856   ,                                       !- Construction Name",
    "   ** Severe  ** IP: IDF line~1856 Error detected in Object=BUILDINGSURFACE:DETAILED, name=SURFACE 53",
    "   **   ~~~   ** Field [Construction Name] is required but was blank",
    "   ************* IDF Context for following error/warning message:",
    "   ************* Note -- lines truncated at 300 characters, if necessary...",
    "   *************   1869 BuildingSurface:Detailed,",
    "   ************* indicated Name=Surface 54",
    "   ************* Only last 3 lines before error line shown.....",
    "   *************   1870   Surface 54,                             !- Name",
    "   *************   1871   Roof,                                   !- Surface Type",
    "   *************   1872   ,                                       !- Construction Name",
    "   ** Severe  ** IP: IDF line~1872 Error detected in Object=BUILDINGSURFACE:DETAILED, name=SURFACE 54",
    "   **   ~~~   ** Field [Construction Name] is required but was blank",
    "   ************* IDF Context for following error/warning message:",
    "   ************* Note -- lines truncated at 300 characters, if necessary...",
    "   *************   1953 BuildingSurface:Detailed,",
    "   ************* indicated Name=Surface 31",
    "   ************* Only last 3 lines before error line shown.....",
    "   *************   1954   Surface 31,                             !- Name",
    "   *************   1955   Floor,                                  !- Surface Type",
    "   *************   1956   ,                                       !- Construction Name",
    "   ** Severe  ** IP: IDF line~1956 Error detected in Object=BUILDINGSURFACE:DETAILED, name=SURFACE 31",
    "   **   ~~~   ** Field [Construction Name] is required but was blank",
    "   ************* IDF Context for following error/warning message:",
    "   ************* Note -- lines truncated at 300 characters, if necessary...",
    "   *************   1969 BuildingSurface:Detailed,",
    "   ************* indicated Name=Surface 32",
    "   ************* Only last 3 lines before error line shown.....",
    "   *************   1970   Surface 32,                             !- Name",
    "   *************   1971   Wall,                                   !- Surface Type",
    "   *************   1972   ,                                       !- Construction Name",
    "   ** Severe  ** IP: IDF line~1972 Error detected in Object=BUILDINGSURFACE:DETAILED, name=SURFACE 32",
    "   **   ~~~   ** Field [Construction Name] is required but was blank",
    "   ************* IDF Context for following error/warning message:",
    "   ************* Note -- lines truncated at 300 characters, if necessary...",
    "   *************   1985 FenestrationSurface:Detailed,",
    "   ************* indicated Name=Sub Surface 2",
    "   ************* Only last 3 lines before error line shown.....",
    "   *************   1986   Sub Surface 2,                          !- Name",
    "   *************   1987   Window,                                 !- Surface Type",
    "   *************   1988   ,                                       !- Construction Name",
    "   ** Severe  ** IP: IDF line~1988 Error detected in Object=FENESTRATIONSURFACE:DETAILED, name=SUB SURFACE 2",
    "   **   ~~~   ** Field [Construction Name] is required but was blank",
    "   ************* IDF Context for following error/warning message:",
    "   ************* Note -- lines truncated at 300 characters, if necessary...",
    "   *************   2001 BuildingSurface:Detailed,",
    "   ************* indicated Name=Surface 33",
    "   ************* Only last 3 lines before error line shown.....",
    "   *************   2002   Surface 33,                             !- Name",
    "   *************   2003   Wall,                                   !- Surface Type",
    "   *************   2004   ,                                       !- Construction Name",
    "   ** Severe  ** IP: IDF line~2004 Error detected in Object=BUILDINGSURFACE:DETAILED, name=SURFACE 33",
    "   **   ~~~   ** Field [Construction Name] is required but was blank",
    "   ************* IDF Context for following error/warning message:",
    "   ************* Note -- lines truncated at 300 characters, if necessary...",
    "   *************   2017 BuildingSurface:Detailed,",
    "   ************* indicated Name=Surface 34",
    "   ************* Only last 3 lines before error line shown.....",
    "   *************   2018   Surface 34,                             !- Name",
    "   *************   2019   Wall,                                   !- Surface Type",
    "   *************   2020   ,                                       !- Construction Name",
    "   ** Severe  ** IP: IDF line~2020 Error detected in Object=BUILDINGSURFACE:DETAILED, name=SURFACE 34",
    "   **   ~~~   ** Field [Construction Name] is required but was blank",
    "   ************* IDF Context for following error/warning message:",
    "   ************* Note -- lines truncated at 300 characters, if necessary...",
    "   *************   2033 BuildingSurface:Detailed,",
    "   ************* indicated Name=Surface 35",
    "   ************* Only last 3 lines before error line shown.....",
    "   *************   2034   Surface 35,                             !- Name",
    "   *************   2035   Wall,                                   !- Surface Type",
    "   *************   2036   ,                                       !- Construction Name",
    "   ** Severe  ** IP: IDF line~2036 Error detected in Object=BUILDINGSURFACE:DETAILED, name=SURFACE 35",
    "   **   ~~~   ** Field [Construction Name] is required but was blank",
    "   ************* IDF Context for following error/warning message:",
    "   ************* Note -- lines truncated at 300 characters, if necessary...",
    "   *************   2049 BuildingSurface:Detailed,",
    "   ************* indicated Name=Surface 36",
    "   ************* Only last 3 lines before error line shown.....",
    "   *************   2050   Surface 36,                             !- Name",
    "   *************   2051   Roof,                                   !- Surface Type",
    "   *************   2052   ,                                       !- Construction Name",
    "   ** Severe  ** IP: IDF line~2052 Error detected in Object=BUILDINGSURFACE:DETAILED, name=SURFACE 36",
    "   **   ~~~   ** Field [Construction Name] is required but was blank",
    "   ** Severe  ** IP: IDF line~2152 Object=CONSTRUCTION, name=000_INTERIOR PARTITION, Required Field=[Outside Layer] was blank.",
    "   ** Warning ** IP: Note -- Some missing fields have been filled with defaults. See the audit output file for details.",
    "   ** Severe  ** IP: Blank \"required\" fields found in input",
    "   **   ~~~   ** Possible Invalid Numerics or other problems",
    "   **  Fatal  ** IP: Errors occurred on processing IDF file. Preceding condition(s) cause termination.",
    "   ...Summary of Errors that led to program termination:",
    "   ..... Reference severe error count=70",
    "   ..... Last severe error=IP: Blank \"required\" fields found in input",
    "   ************* Warning:  Node connection errors not checked - most system input has not been read (see previous warning).",
    "   ************* Fatal error -- final processing.  Program exited before simulations began.  See previous error messages.",
    "   ************* EnergyPlus Warmup Error Summary. During Warmup: 0 Warning; 0 Severe Errors.",
    "   ************* EnergyPlus Sizing Error Summary. During Sizing: 0 Warning; 0 Severe Errors.",
    "   ************* EnergyPlus Terminated--Fatal Error Detected. 1 Warning; 70 Severe Errors; "
  ],
  "seed_file": "in.osm",
  "steps": [
    {
      "arguments": {
      },
      "measure_dir_name": "openstudio_results"
    }
  ],
  "weather_file": "../../weatherdata/USA_IL_Chicago-OHare.Intl.AP.725300_TMY3.epw"
}