{
   "completed_at" : "20180206T085721Z",
   "completed_status" : "Fail",
   "current_step" : 1,
   "eplusout_err" : "Program Version,EnergyPlus, Version 8.6.0-198c6a3cff, YMD=2018.02.06 08:56,IDD_Version 8.6.0\n   ************* Beginning Zone Sizing Calculations\n   ** Warning ** ProcessScheduleInput: Schedule:Day:Interval=\"SCHEDULE DAY 3\", Blank Schedule Type Limits Name input -- will not be validated.\n   ** Warning ** ProcessScheduleInput: Schedule:Day:Interval=\"SCHEDULE DAY 4\", Blank Schedule Type Limits Name input -- will not be validated.\n   ** Warning ** ProcessScheduleInput: Schedule:Day:Interval=\"SCHEDULE DAY 5\", Blank Schedule Type Limits Name input -- will not be validated.\n   ** Warning ** ProcessScheduleInput: Schedule:Day:Interval=\"SCHEDULE DAY 6\", Blank Schedule Type Limits Name input -- will not be validated.\n   ** Warning ** ProcessScheduleInput: Schedule:Constant=\"ALWAYS OFF DISCRETE\", Blank Schedule Type Limits Name input -- will not be validated.\n   ** Warning ** ProcessScheduleInput: Schedule:Constant=\"ALWAYS ON CONTINUOUS\", Blank Schedule Type Limits Name input -- will not be validated.\n   ** Warning ** GetHTSurfaceData: Surfaces with interface to Ground found but no \"Ground Temperatures\" were input.\n   **   ~~~   ** Found first in surface=SURFACE 25\n   **   ~~~   ** Defaults, constant throughout the year of (18.0) will be used.\n   ** Warning ** CheckUsedConstructions: There are 8 nominally unused constructions in input.\n   **   ~~~   ** For explicit details on each unused construction, use Output:Diagnostics,DisplayExtraWarnings;\n   ************* Beginning System Sizing Calculations\n   ************* Beginning Plant Sizing Calculations\n   ** Warning ** SizePlantLoop: Calculated Plant Sizing Design Volume Flow Rate=[0.00] is too small. Set to 0.0\n   **   ~~~   ** ..occurs for PlantLoop=PLANT LOOP 1\n   ** Warning ** SizePump: Calculated Pump Nominal Volume Flow Rate=[0.00] is too small. Set to 0.0\n   **   ~~~   ** ..occurs for Pump=PUMP VARIABLE SPEED 1\n   ** Warning ** Check input. Pump nominal power or motor efficiency is set to 0, for pump=PUMP VARIABLE SPEED 1\n   ** Warning ** Check input. Pump nominal flow rate is set or calculated = 0, for pump=PUMP VARIABLE SPEED 1\n   ** Warning ** Output:Meter: invalid Name=\"DISTRICTCOOLING:FACILITY\" - not found.\n   ** Warning ** Output:Meter: invalid Name=\"DISTRICTHEATING:FACILITY\" - not found.\n   ** Warning ** Output:Meter:MeterFileOnly requested for \"Electricity:Facility\" (TimeStep), already on \"Output:Meter\". Will report to both eplusout.eso and eplusout.mtr\n   ************* Testing Individual Branch Integrity\n   ************* All Branches passed integrity testing\n   ************* Testing Individual Supply Air Path Integrity\n   ************* All Supply Air Paths passed integrity testing\n   ************* Testing Individual Return Air Path Integrity\n   ************* All Return Air Paths passed integrity testing\n   ************* No node connection errors were found.\n   ************* Beginning Simulation\n   ** Warning ** CalcDoe2DXCoil: Coil:Cooling:DX:SingleSpeed=\"COIL COOLING DX SINGLE SPEED 1\" - Air volume flow rate per watt of rated total cooling capacity is out of range at 2.074E-005 m3/s/W.\n   **   ~~~   **  Environment=RUN PERIOD 1, at Simulation time=02/11 14:30 - 14:45\n   **   ~~~   ** Expected range for VolumeFlowPerRatedTotalCapacity=[2.684E-005--6.713E-005]\n   **   ~~~   ** Possible causes include inconsistent air flow rates in system components,\n   **   ~~~   ** or variable air volume [VAV] system using incorrect coil type.\n   ** Warning ** CalcDoe2DXCoil: Coil:Cooling:DX:SingleSpeed \"COIL COOLING DX SINGLE SPEED 1\" - Full load outlet air dry-bulb temperature < 2C. This indicates the possibility of coil frost/freeze. Outlet temperature = -20.18 C.\n   **   ~~~   **  ...Occurrence info = RUN PERIOD 1, 02/11 14:30 - 14:38\n   **   ~~~   ** ... Possible reasons for low outlet air dry-bulb temperatures are: This DX coil\n   **   ~~~   **    1) may have a low inlet air dry-bulb temperature. Inlet air temperature = 13.200 C.\n   **   ~~~   **    2) may have a low air flow rate per watt of cooling capacity. Check inputs.\n   **   ~~~   **    3) is used as part of a HX assisted cooling coil which uses a high sensible effectiveness. Check inputs.\n   ** Warning ** SimHVAC: Maximum iterations (20) exceeded for all HVAC loops, at RUN PERIOD 1, 07/06 14:25 - 14:30\n   **   ~~~   ** The solution for one or more of the Air Loop HVAC systems did not appear to converge\n   **   ~~~   ** ...use Output:Diagnostics,DisplayExtraWarnings; to show more details on each max iteration exceeded.\n   ** Warning ** SimHVAC: Maximum iterations (20) exceeded for all HVAC loops, at RUN PERIOD 1, 07/06 14:30 - 14:38\n   **   ~~~   ** The solution for one or more of the Air Loop HVAC systems did not appear to converge\n   ** Warning ** SimHVAC: Maximum iterations (20) exceeded for all HVAC loops, at RUN PERIOD 1, 08/04 14:30 - 14:45\n   **   ~~~   ** The solution for one or more of the Air Loop HVAC systems did not appear to converge\n   ************* Simulation Error Summary *************\n   ************* There are 2 unused schedules in input.\n   ************* There are 2 unused week schedules in input.\n   ************* There are 6 unused day schedules in input.\n   ************* Use Output:Diagnostics,DisplayUnusedSchedules; to see them.\n   *************\n   ************* ===== Recurring Error Summary =====\n   ************* The following recurring error messages occurred.\n   *************\n   *************  ** Warning ** CalcDoe2DXCoil: Coil:Cooling:DX:SingleSpeed=\"COIL COOLING DX SINGLE SPEED 1\" - Air volume flow rate per watt of rated total cooling capacity is out of range error continues...\n   *************  **   ~~~   **   This error occurred 94530 total times;\n   *************  **   ~~~   **   during Warmup 0 times;\n   *************  **   ~~~   **   during Sizing 0 times.\n   *************  **   ~~~   **   Max=7.881473E-005  Min=2.046137E-005\n   *************\n   *************  ** Warning ** CalcDoe2DXCoil: Coil:Cooling:DX:SingleSpeed=\"COIL COOLING DX SINGLE SPEED 1\" - Full load outlet temperature indicates a possibility of frost/freeze error continues. Outlet air temperature statistics follow:\n   *************  **   ~~~   **   This error occurred 23350 total times;\n   *************  **   ~~~   **   during Warmup 0 times;\n   *************  **   ~~~   **   during Sizing 0 times.\n   *************  **   ~~~   **   Max=1.99913  Min=-23.899534\n   *************\n   *************\n   ************* ===== Final Error Summary =====\n   ************* The following error categories occurred.  Consider correcting or noting.\n   ************* Nominally Unused Constructions\n   ************* ..The nominally unused constructions warning is provided to alert you to potential conditions that can cause\n   ************* ..extra time during simulation. Each construction is calculated by the algorithm indicated in the HeatBalanceAlgorithm\n   ************* ..object. You may remove the constructions indicated (when you use the DisplayExtraWarnings option).\n   *************\n   ************* EnergyPlus Warmup Error Summary. During Warmup: 0 Warning; 0 Severe Errors.\n   ************* EnergyPlus Sizing Error Summary. During Sizing: 8 Warning; 0 Severe Errors.\n   ************* EnergyPlus Completed Successfully-- 117898 Warning; 0 Severe Errors; Elapsed Time=00hr 00min 15.97sec\n",
   "seed_file" : "in.osm",
   "started_at" : "20180206T085647Z",
   "steps" : [
      {
         "arguments" : {},
         "measure_dir_name" : "openstudio_results",
         "result" : {
            "completed_at" : "20180206T085719Z",
            "started_at" : "20180206T085715Z",
            "stderr" : "",
            "stdout" : "",
            "step_errors" : [],
            "step_files" : [
               "/var/simdata/openstudio/OpenStudio-resources/testruns/unitary_test.rb/run/000_openstudio_results/report.html"
            ],
            "step_final_condition" : "Generated report with 21 sections to ./report.html.",
            "step_info" : [],
            "step_initial_condition" : "Gathering data from EnergyPlus SQL file and OSM model.",
            "step_result" : "Success",
            "step_values" : [
               {
                  "name" : "building_summary_section",
                  "value" : true
               },
               {
                  "name" : "annual_overview_section",
                  "value" : true
               },
               {
                  "name" : "monthly_overview_section",
                  "value" : true
               },
               {
                  "name" : "utility_bills_rates_section",
                  "value" : true
               },
               {
                  "name" : "envelope_section_section",
                  "value" : true
               },
               {
                  "name" : "space_type_breakdown_section",
                  "value" : true
               },
               {
                  "name" : "space_type_details_section",
                  "value" : true
               },
               {
                  "name" : "interior_lighting_section",
                  "value" : true
               },
               {
                  "name" : "plug_loads_section",
                  "value" : true
               },
               {
                  "name" : "exterior_light_section",
                  "value" : true
               },
               {
                  "name" : "water_use_section",
                  "value" : true
               },
               {
                  "name" : "hvac_load_profile",
                  "value" : true
               },
               {
                  "name" : "zone_condition_section",
                  "value" : true
               },
               {
                  "name" : "zone_summary_section",
                  "value" : true
               },
               {
                  "name" : "zone_equipment_detail_section",
                  "value" : true
               },
               {
                  "name" : "air_loops_detail_section",
                  "value" : true
               },
               {
                  "name" : "plant_loops_detail_section",
                  "value" : true
               },
               {
                  "name" : "outdoor_air_section",
                  "value" : true
               },
               {
                  "name" : "cost_summary_section",
                  "value" : true
               },
               {
                  "name" : "source_energy_section",
                  "value" : true
               },
               {
                  "name" : "schedules_overview_section",
                  "value" : true
               },
               {
                  "display_name" : "Building 1",
                  "name" : "building_name",
                  "value" : "building_name"
               },
               {
                  "name" : "total_site_energy",
                  "units" : "kBtu",
                  "value" : 3419743.1264328551
               },
               {
                  "name" : "net_site_energy",
                  "units" : "kBtu",
                  "value" : 3419743.1264328551
               },
               {
                  "name" : "total_building_area",
                  "units" : "ft^2",
                  "value" : 53819.55208354861
               },
               {
                  "name" : "total_site_eui",
                  "units" : "kBtu/ft^2",
                  "value" : 63.540906492943321
               },
               {
                  "name" : "eui",
                  "units" : "kBtu/ft^2",
                  "value" : 63.540906492943321
               },
               {
                  "name" : "unmet_hours_during_heating",
                  "units" : "hr",
                  "value" : 0
               },
               {
                  "name" : "unmet_hours_during_cooling",
                  "units" : "hr",
                  "value" : 0
               },
               {
                  "name" : "unmet_hours_during_occupied_heating",
                  "units" : "hr",
                  "value" : 0
               },
               {
                  "name" : "unmet_hours_during_occupied_cooling",
                  "units" : "hr",
                  "value" : 0
               },
               {
                  "name" : "unmet_hours_tolerance_heating",
                  "units" : "F",
                  "value" : 0.35999999999999999
               },
               {
                  "name" : "unmet_hours_tolerance_cooling",
                  "units" : "F",
                  "value" : 0.35999999999999999
               },
               {
                  "name" : "end_use_heating",
                  "units" : "kBtu",
                  "value" : 2058412.3528692434
               },
               {
                  "name" : "end_use_cooling",
                  "units" : "kBtu",
                  "value" : 163564.80045246918
               },
               {
                  "name" : "end_use_interior_lighting",
                  "units" : "kBtu",
                  "value" : 522304.10231985658
               },
               {
                  "name" : "end_use_exterior_lighting",
                  "units" : "kBtu",
                  "value" : 0
               },
               {
                  "name" : "end_use_interior_equipment",
                  "units" : "kBtu",
                  "value" : 522304.10231985658
               },
               {
                  "name" : "end_use_exterior_equipment",
                  "units" : "kBtu",
                  "value" : 0
               },
               {
                  "name" : "end_use_fans",
                  "units" : "kBtu",
                  "value" : 153138.81212902267
               },
               {
                  "name" : "end_use_pumps",
                  "units" : "kBtu",
                  "value" : 0
               },
               {
                  "name" : "end_use_heat_rejection",
                  "units" : "kBtu",
                  "value" : 0
               },
               {
                  "name" : "end_use_humidification",
                  "units" : "kBtu",
                  "value" : 0
               },
               {
                  "name" : "end_use_heat_recovery",
                  "units" : "kBtu",
                  "value" : 0
               },
               {
                  "name" : "end_use_water_systems",
                  "units" : "kBtu",
                  "value" : 0
               },
               {
                  "name" : "end_use_refrigeration",
                  "units" : "kBtu",
                  "value" : 0
               },
               {
                  "name" : "end_use_generators",
                  "units" : "kBtu",
                  "value" : 0
               },
               {
                  "name" : "fuel_electricity",
                  "units" : "kBtu",
                  "value" : 3419743.1264328551
               },
               {
                  "name" : "fuel_natural_gas",
                  "units" : "kBtu",
                  "value" : 0
               },
               {
                  "name" : "fuel_additional_fuel",
                  "units" : "kBtu",
                  "value" : 0
               },
               {
                  "name" : "fuel_district_cooling",
                  "units" : "kBtu",
                  "value" : 0
               },
               {
                  "name" : "fuel_district_heating",
                  "units" : "kBtu",
                  "value" : 0
               },
               {
                  "name" : "end_use_electricity_heating",
                  "units" : "kWh",
                  "value" : 603261.11111111101
               },
               {
                  "name" : "end_use_electricity_cooling",
                  "units" : "kWh",
                  "value" : 47936.111111111109
               },
               {
                  "name" : "end_use_electricity_interior_lighting",
                  "units" : "kWh",
                  "value" : 153072.22222222222
               },
               {
                  "name" : "end_use_electricity_exterior_lighting",
                  "units" : "kWh",
                  "value" : 0
               },
               {
                  "name" : "end_use_electricity_interior_equipment",
                  "units" : "kWh",
                  "value" : 153072.22222222222
               },
               {
                  "name" : "end_use_electricity_exterior_equipment",
                  "units" : "kWh",
                  "value" : 0
               },
               {
                  "name" : "end_use_electricity_fans",
                  "units" : "kWh",
                  "value" : 44880.555555555555
               },
               {
                  "name" : "end_use_electricity_pumps",
                  "units" : "kWh",
                  "value" : 0
               },
               {
                  "name" : "end_use_electricity_heat_rejection",
                  "units" : "kWh",
                  "value" : 0
               },
               {
                  "name" : "end_use_electricity_humidification",
                  "units" : "kWh",
                  "value" : 0
               },
               {
                  "name" : "end_use_electricity_heat_recovery",
                  "units" : "kWh",
                  "value" : 0
               },
               {
                  "name" : "end_use_electricity_water_systems",
                  "units" : "kWh",
                  "value" : 0
               },
               {
                  "name" : "end_use_electricity_refrigeration",
                  "units" : "kWh",
                  "value" : 0
               },
               {
                  "name" : "end_use_electricity_generators",
                  "units" : "kWh",
                  "value" : 0
               },
               {
                  "name" : "end_use_natural_gas_heating",
                  "units" : "therms",
                  "value" : 0
               },
               {
                  "name" : "end_use_natural_gas_cooling",
                  "units" : "therms",
                  "value" : 0
               },
               {
                  "name" : "end_use_natural_gas_interior_lighting",
                  "units" : "therms",
                  "value" : 0
               },
               {
                  "name" : "end_use_natural_gas_exterior_lighting",
                  "units" : "therms",
                  "value" : 0
               },
               {
                  "name" : "end_use_natural_gas_interior_equipment",
                  "units" : "therms",
                  "value" : 0
               },
               {
                  "name" : "end_use_natural_gas_exterior_equipment",
                  "units" : "therms",
                  "value" : 0
               },
               {
                  "name" : "end_use_natural_gas_fans",
                  "units" : "therms",
                  "value" : 0
               },
               {
                  "name" : "end_use_natural_gas_pumps",
                  "units" : "therms",
                  "value" : 0
               },
               {
                  "name" : "end_use_natural_gas_heat_rejection",
                  "units" : "therms",
                  "value" : 0
               },
               {
                  "name" : "end_use_natural_gas_humidification",
                  "units" : "therms",
                  "value" : 0
               },
               {
                  "name" : "end_use_natural_gas_heat_recovery",
                  "units" : "therms",
                  "value" : 0
               },
               {
                  "name" : "end_use_natural_gas_water_systems",
                  "units" : "therms",
                  "value" : 0
               },
               {
                  "name" : "end_use_natural_gas_refrigeration",
                  "units" : "therms",
                  "value" : 0
               },
               {
                  "name" : "end_use_natural_gas_generators",
                  "units" : "therms",
                  "value" : 0
               },
               {
                  "name" : "electricity_heating_ip",
                  "units" : "kWh",
                  "value" : 603262.72222222225
               },
               {
                  "name" : "electricity_cooling_ip",
                  "units" : "kWh",
                  "value" : 47937.195095625
               },
               {
                  "name" : "electricity_interior_lighting_ip",
                  "units" : "kWh",
                  "value" : 153073.55555555556
               },
               {
                  "name" : "electricity_exterior_lighting_ip",
                  "units" : "kWh",
                  "value" : 0
               },
               {
                  "name" : "electricity_interior_equipment_ip",
                  "units" : "kWh",
                  "value" : 153073.55555555556
               },
               {
                  "name" : "electricity_exterior_equipment_ip",
                  "units" : "kWh",
                  "value" : 0
               },
               {
                  "name" : "electricity_fans_ip",
                  "units" : "kWh",
                  "value" : 44881.833333333336
               },
               {
                  "name" : "electricity_pumps_ip",
                  "units" : "kWh",
                  "value" : 0
               },
               {
                  "name" : "electricity_heat_rejection_ip",
                  "units" : "kWh",
                  "value" : 0
               },
               {
                  "name" : "electricity_humidification_ip",
                  "units" : "kWh",
                  "value" : 0
               },
               {
                  "name" : "electricity_heat_recovery_ip",
                  "units" : "kWh",
                  "value" : 0
               },
               {
                  "name" : "electricity_water_systems_ip",
                  "units" : "kWh",
                  "value" : 0
               },
               {
                  "name" : "electricity_refrigeration_ip",
                  "units" : "kWh",
                  "value" : 0
               },
               {
                  "name" : "electricity_generators_ip",
                  "units" : "kWh",
                  "value" : 0
               },
               {
                  "name" : "electricity_ip",
                  "units" : "kWh",
                  "value" : 1002228.8617622916
               },
               {
                  "name" : "natural_gas_heating_ip",
                  "units" : "MBtu",
                  "value" : 0
               },
               {
                  "name" : "natural_gas_cooling_ip",
                  "units" : "MBtu",
                  "value" : 0
               },
               {
                  "name" : "natural_gas_interior_lighting_ip",
                  "units" : "MBtu",
                  "value" : 0
               },
               {
                  "name" : "natural_gas_exterior_lighting_ip",
                  "units" : "MBtu",
                  "value" : 0
               },
               {
                  "name" : "natural_gas_interior_equipment_ip",
                  "units" : "MBtu",
                  "value" : 0
               },
               {
                  "name" : "natural_gas_exterior_equipment_ip",
                  "units" : "MBtu",
                  "value" : 0
               },
               {
                  "name" : "natural_gas_fans_ip",
                  "units" : "MBtu",
                  "value" : 0
               },
               {
                  "name" : "natural_gas_pumps_ip",
                  "units" : "MBtu",
                  "value" : 0
               },
               {
                  "name" : "natural_gas_heat_rejection_ip",
                  "units" : "MBtu",
                  "value" : 0
               },
               {
                  "name" : "natural_gas_humidification_ip",
                  "units" : "MBtu",
                  "value" : 0
               },
               {
                  "name" : "natural_gas_heat_recovery_ip",
                  "units" : "MBtu",
                  "value" : 0
               },
               {
                  "name" : "natural_gas_water_systems_ip",
                  "units" : "MBtu",
                  "value" : 0
               },
               {
                  "name" : "natural_gas_refrigeration_ip",
                  "units" : "MBtu",
                  "value" : 0
               },
               {
                  "name" : "natural_gas_generators_ip",
                  "units" : "MBtu",
                  "value" : 0
               },
               {
                  "name" : "natural_gas_ip",
                  "units" : "MBtu",
                  "value" : 0
               },
               {
                  "name" : "additional_fuel_heating_ip",
                  "units" : "MBtu",
                  "value" : 0
               },
               {
                  "name" : "additional_fuel_cooling_ip",
                  "units" : "MBtu",
                  "value" : 0
               },
               {
                  "name" : "additional_fuel_interior_lighting_ip",
                  "units" : "MBtu",
                  "value" : 0
               },
               {
                  "name" : "additional_fuel_exterior_lighting_ip",
                  "units" : "MBtu",
                  "value" : 0
               },
               {
                  "name" : "additional_fuel_interior_equipment_ip",
                  "units" : "MBtu",
                  "value" : 0
               },
               {
                  "name" : "additional_fuel_exterior_equipment_ip",
                  "units" : "MBtu",
                  "value" : 0
               },
               {
                  "name" : "additional_fuel_fans_ip",
                  "units" : "MBtu",
                  "value" : 0
               },
               {
                  "name" : "additional_fuel_pumps_ip",
                  "units" : "MBtu",
                  "value" : 0
               },
               {
                  "name" : "additional_fuel_heat_rejection_ip",
                  "units" : "MBtu",
                  "value" : 0
               },
               {
                  "name" : "additional_fuel_humidification_ip",
                  "units" : "MBtu",
                  "value" : 0
               },
               {
                  "name" : "additional_fuel_heat_recovery_ip",
                  "units" : "MBtu",
                  "value" : 0
               },
               {
                  "name" : "additional_fuel_water_systems_ip",
                  "units" : "MBtu",
                  "value" : 0
               },
               {
                  "name" : "additional_fuel_refrigeration_ip",
                  "units" : "MBtu",
                  "value" : 0
               },
               {
                  "name" : "additional_fuel_generators_ip",
                  "units" : "MBtu",
                  "value" : 0
               },
               {
                  "name" : "additional_fuel_ip",
                  "units" : "MBtu",
                  "value" : 0
               },
               {
                  "name" : "district_cooling_heating_ip",
                  "units" : "MBtu",
                  "value" : 0
               },
               {
                  "name" : "district_cooling_cooling_ip",
                  "units" : "MBtu",
                  "value" : 0
               },
               {
                  "name" : "district_cooling_interior_lighting_ip",
                  "units" : "MBtu",
                  "value" : 0
               },
               {
                  "name" : "district_cooling_exterior_lighting_ip",
                  "units" : "MBtu",
                  "value" : 0
               },
               {
                  "name" : "district_cooling_interior_equipment_ip",
                  "units" : "MBtu",
                  "value" : 0
               },
               {
                  "name" : "district_cooling_exterior_equipment_ip",
                  "units" : "MBtu",
                  "value" : 0
               },
               {
                  "name" : "district_cooling_fans_ip",
                  "units" : "MBtu",
                  "value" : 0
               },
               {
                  "name" : "district_cooling_pumps_ip",
                  "units" : "MBtu",
                  "value" : 0
               },
               {
                  "name" : "district_cooling_heat_rejection_ip",
                  "units" : "MBtu",
                  "value" : 0
               },
               {
                  "name" : "district_cooling_humidification_ip",
                  "units" : "MBtu",
                  "value" : 0
               },
               {
                  "name" : "district_cooling_heat_recovery_ip",
                  "units" : "MBtu",
                  "value" : 0
               },
               {
                  "name" : "district_cooling_water_systems_ip",
                  "units" : "MBtu",
                  "value" : 0
               },
               {
                  "name" : "district_cooling_refrigeration_ip",
                  "units" : "MBtu",
                  "value" : 0
               },
               {
                  "name" : "district_cooling_generators_ip",
                  "units" : "MBtu",
                  "value" : 0
               },
               {
                  "name" : "district_cooling_ip",
                  "units" : "MBtu",
                  "value" : 0
               },
               {
                  "name" : "district_heating_heating_ip",
                  "units" : "MBtu",
                  "value" : 0
               },
               {
                  "name" : "district_heating_cooling_ip",
                  "units" : "MBtu",
                  "value" : 0
               },
               {
                  "name" : "district_heating_interior_lighting_ip",
                  "units" : "MBtu",
                  "value" : 0
               },
               {
                  "name" : "district_heating_exterior_lighting_ip",
                  "units" : "MBtu",
                  "value" : 0
               },
               {
                  "name" : "district_heating_interior_equipment_ip",
                  "units" : "MBtu",
                  "value" : 0
               },
               {
                  "name" : "district_heating_exterior_equipment_ip",
                  "units" : "MBtu",
                  "value" : 0
               },
               {
                  "name" : "district_heating_fans_ip",
                  "units" : "MBtu",
                  "value" : 0
               },
               {
                  "name" : "district_heating_pumps_ip",
                  "units" : "MBtu",
                  "value" : 0
               },
               {
                  "name" : "district_heating_heat_rejection_ip",
                  "units" : "MBtu",
                  "value" : 0
               },
               {
                  "name" : "district_heating_humidification_ip",
                  "units" : "MBtu",
                  "value" : 0
               },
               {
                  "name" : "district_heating_heat_recovery_ip",
                  "units" : "MBtu",
                  "value" : 0
               },
               {
                  "name" : "district_heating_water_systems_ip",
                  "units" : "MBtu",
                  "value" : 0
               },
               {
                  "name" : "district_heating_refrigeration_ip",
                  "units" : "MBtu",
                  "value" : 0
               },
               {
                  "name" : "district_heating_generators_ip",
                  "units" : "MBtu",
                  "value" : 0
               },
               {
                  "name" : "district_heating_ip",
                  "units" : "MBtu",
                  "value" : 0
               },
               {
                  "name" : "water_heating_ip",
                  "units" : "MBtu",
                  "value" : 0
               },
               {
                  "name" : "water_cooling_ip",
                  "units" : "MBtu",
                  "value" : 0
               },
               {
                  "name" : "water_interior_lighting_ip",
                  "units" : "MBtu",
                  "value" : 0
               },
               {
                  "name" : "water_exterior_lighting_ip",
                  "units" : "MBtu",
                  "value" : 0
               },
               {
                  "name" : "water_interior_equipment_ip",
                  "units" : "MBtu",
                  "value" : 0
               },
               {
                  "name" : "water_exterior_equipment_ip",
                  "units" : "MBtu",
                  "value" : 0
               },
               {
                  "name" : "water_fans_ip",
                  "units" : "MBtu",
                  "value" : 0
               },
               {
                  "name" : "water_pumps_ip",
                  "units" : "MBtu",
                  "value" : 0
               },
               {
                  "name" : "water_heat_rejection_ip",
                  "units" : "MBtu",
                  "value" : 0
               },
               {
                  "name" : "water_humidification_ip",
                  "units" : "MBtu",
                  "value" : 0
               },
               {
                  "name" : "water_heat_recovery_ip",
                  "units" : "MBtu",
                  "value" : 0
               },
               {
                  "name" : "water_water_systems_ip",
                  "units" : "MBtu",
                  "value" : 0
               },
               {
                  "name" : "water_refrigeration_ip",
                  "units" : "MBtu",
                  "value" : 0
               },
               {
                  "name" : "water_generators_ip",
                  "units" : "MBtu",
                  "value" : 0
               },
               {
                  "name" : "water_ip",
                  "units" : "MBtu",
                  "value" : 0
               },
               {
                  "name" : "ashrae_189_1_2009_ext_roof_iead_climate_zone_2_5",
                  "units" : "ft^2",
                  "value" : 53819.55208354861
               },
               {
                  "name" : "ashrae_189_1_2009_ext_wall_steel_frame_climate_zone_4_8",
                  "units" : "ft^2",
                  "value" : 7750.0155000310051
               },
               {
                  "name" : "ashrae_189_1_2009_ext_window_climate_zone_4_5",
                  "units" : "ft^2",
                  "value" : 5166.6770000206616
               },
               {
                  "name" : "gross_window_wall_ratio",
                  "units" : "%",
                  "value" : 40
               },
               {
                  "name" : "gross_window_wall_ratio_conditioned",
                  "units" : "%",
                  "value" : 0
               },
               {
                  "name" : "skylight_roof_ratio",
                  "units" : "%",
                  "value" : 0
               },
               {
                  "name" : "space_type_baseline_model_space_type",
                  "units" : "ft^2",
                  "value" : 53819.55208354861
               },
               {
                  "name" : "exterior_lighting_total_power",
                  "units" : "W",
                  "value" : 0
               },
               {
                  "name" : "exterior_lighting_total_consumption",
                  "units" : "kWh",
                  "value" : 1002227.7777777779
               },
               {
                  "name" : "inflation_approach",
                  "value" : "Constant Dollar"
               },
               {
                  "name" : "analysis_length",
                  "units" : "yrs",
                  "value" : 25
               },
               {
                  "name" : "annual_peak_electric_demand",
                  "units" : "kW",
                  "value" : 280.65202000000005
               },
               {
                  "name" : "first_year_capital_cost",
                  "units" : "$",
                  "value" : 0
               },
               {
                  "name" : "annual_utility_cost",
                  "units" : "$",
                  "value" : 0
               },
               {
                  "name" : "total_lifecycle_cost",
                  "units" : "$",
                  "value" : 0
               }
            ],
            "step_warnings" : []
         }
      }
   ],
   "updated_at" : "20180206T085721Z",
   "weather_file" : "../../weatherdata/USA_IL_Chicago-OHare.Intl.AP.725300_TMY3.epw"
}
