{
   "completed_at" : "20180208T143256Z",
   "completed_status" : "Fail",
   "current_step" : 0,
   "eplusout_err" : "Program Version,EnergyPlus, Version 8.7.0-ae053cab77, YMD=2018.02.08 14:32,IDD_Version 8.7.0\n   ************* Beginning Zone Sizing Calculations\n",
   "hash" : "762A3F98",
   "seed_file" : "in.osm",
   "started_at" : "20180208T143244Z",
   "steps" : [
      {
         "arguments" : {},
         "measure_dir_name" : "openstudio_results"
      }
   ],
   "updated_at" : "20180208T143256Z",
   "weather_file" : "../../weatherdata/USA_IL_Chicago-OHare.Intl.AP.725300_TMY3.epw"
}
