{
   "completed_at" : "20180205T172644Z",
   "completed_status" : "Fail",
   "current_step" : 0,
   "eplusout_err" : "Program Version,EnergyPlus, Version 8.7.0-ae053cab77, YMD=2018.02.05 17:26,IDD_Version 8.7.0\n   ** Warning ** No Timestep object found.  Number of TimeSteps in Hour defaulted to 4.\n   ************* Beginning Zone Sizing Calculations\n",
   "hash" : "2F72B74D",
   "seed_file" : "in.osm",
   "started_at" : "20180205T172632Z",
   "steps" : [
      {
         "arguments" : {},
         "measure_dir_name" : "openstudio_results"
      }
   ],
   "updated_at" : "20180205T172644Z",
   "weather_file" : "../../weatherdata/USA_IL_Chicago-OHare.Intl.AP.725300_TMY3.epw"
}
