{
   "completed_at" : "20180205T210101Z",
   "completed_status" : "Fail",
   "current_step" : 0,
   "eplusout_err" : "Program Version,EnergyPlus, Version 8.8.0-7c3bbe4830, YMD=2018.02.05 21:01,IDD_Version 8.8.0\n   ************* Beginning Zone Sizing Calculations\n",
   "hash" : "AC72BD94",
   "seed_file" : "in.osm",
   "started_at" : "20180205T210049Z",
   "steps" : [
      {
         "arguments" : {},
         "measure_dir_name" : "openstudio_results"
      }
   ],
   "updated_at" : "20180205T210101Z",
   "weather_file" : "../../weatherdata/USA_IL_Chicago-OHare.Intl.AP.725300_TMY3.epw"
}
