{
  "completed_status": "Fail",
  "current_step": 1,
  "eplusout_err": "Program Version,EnergyPlus, Version 8.6.0-198c6a3cff, IDD_Version 8.6.0\n   ************* Beginning Zone Sizing Calculations\n   ** Warning ** ProcessScheduleInput: Schedule:Day:Interval=\"SCHEDULE DAY 10\", Blank Schedule Type Limits Name input -- will not be validated.\n   ** Warning ** ProcessScheduleInput: Schedule:Day:Interval=\"SCHEDULE DAY 11\", Blank Schedule Type Limits Name input -- will not be validated.\n   ** Warning ** ProcessScheduleInput: Schedule:Day:Interval=\"SCHEDULE DAY 2\", Blank Schedule Type Limits Name input -- will not be validated.\n   ** Warning ** ProcessScheduleInput: Schedule:Day:Interval=\"SCHEDULE DAY 3\", Blank Schedule Type Limits Name input -- will not be validated.\n   ** Warning ** ProcessScheduleInput: Schedule:Day:Interval=\"SCHEDULE DAY 4\", Blank Schedule Type Limits Name input -- will not be validated.\n   ** Warning ** ProcessScheduleInput: Schedule:Day:Interval=\"SCHEDULE DAY 5\", Blank Schedule Type Limits Name input -- will not be validated.\n   ** Warning ** ProcessScheduleInput: Schedule:Day:Interval=\"SCHEDULE DAY 6\", Blank Schedule Type Limits Name input -- will not be validated.\n   ** Warning ** ProcessScheduleInput: Schedule:Day:Interval=\"SCHEDULE DAY 7\", Blank Schedule Type Limits Name input -- will not be validated.\n   ** Warning ** ProcessScheduleInput: Schedule:Day:Interval=\"SCHEDULE DAY 8\", Blank Schedule Type Limits Name input -- will not be validated.\n   ** Warning ** ProcessScheduleInput: Schedule:Day:Interval=\"SCHEDULE DAY 9\", Blank Schedule Type Limits Name input -- will not be validated.\n   ** Warning ** ProcessScheduleInput: Schedule:Constant=\"ALWAYS ON CONTINUOUS\", Blank Schedule Type Limits Name input -- will not be validated.\n   ** Warning ** GetHTSurfaceData: Surfaces with interface to Ground found but no \"Ground Temperatures\" were input.\n   **   ~~~   ** Found first in surface=SURFACE 25\n   **   ~~~   ** Defaults, constant throughout the year of (18.0) will be used.\n   ** Warning ** CheckUsedConstructions: There are 6 nominally unused constructions in input.\n   **   ~~~   ** For explicit details on each unused construction, use Output:Diagnostics,DisplayExtraWarnings;\n   ** Warning ** GetSimpleAirModelInputs: ZoneInfiltration:DesignFlowRate=\"STORY 1 CORE THERMAL ZONE BASELINE MODEL INFILTRATION\", Design Flow Rate Calculation Method specifies Flow per Exterior Surface Area, but Exterior Surface Area = 0.  0 Infiltration will result.\n   ** Warning ** GetSimpleAirModelInputs: ZoneInfiltration:DesignFlowRate=\"STORY 2 CORE THERMAL ZONE BASELINE MODEL INFILTRATION\", Design Flow Rate Calculation Method specifies Flow per Exterior Surface Area, but Exterior Surface Area = 0.  0 Infiltration will result.\n   ************* Beginning Plant Sizing Calculations\n   ** Warning ** Output:Meter:MeterFileOnly requested for \"Electricity:Facility\" (TimeStep), already on \"Output:Meter\". Will report to both eplusout.eso and eplusout.mtr\n   ************* Testing Individual Branch Integrity\n   ************* All Branches passed integrity testing\n   ************* Testing Individual Supply Air Path Integrity\n   ************* All Supply Air Paths passed integrity testing\n   ************* Testing Individual Return Air Path Integrity\n   ************* All Return Air Paths passed integrity testing\n   ************* No node connection errors were found.\n   ************* Beginning Simulation\n   ** Warning ** ControlCompOutput: Maximum iterations exceeded for ZoneHVAC:Baseboard:RadiantConvective:Water = ZONE HVAC BASEBOARD RADIANT CONVECTIVE WATER 1\n   **   ~~~   ** ... Load met       = 732.28631 W.\n   **   ~~~   ** ... Load requested = 736.03902 W.\n   **   ~~~   ** ... Error          = 0.50985240 %.\n   **   ~~~   ** ... Tolerance      = 0.10000000 %.\n   **   ~~~   ** ... Error          = (Load met - Load requested) / MAXIMUM(Load requested, 100)\n   **   ~~~   ** ... Actuated Node Mass Flow Rate =1.591650527E-002 kg/s\n   **   ~~~   **  Environment=RUN PERIOD 1, at Simulation time=04/21 22:00 - 22:15\n   ** Warning ** ControlCompOutput: Maximum iterations exceeded for ZoneHVAC:Baseboard:RadiantConvective:Water = ZONE HVAC BASEBOARD RADIANT CONVECTIVE WATER 1\n   **   ~~~   ** ... Load met       = 732.76536 W.\n   **   ~~~   ** ... Load requested = 736.03902 W.\n   **   ~~~   ** ... Error          = 0.44476706 %.\n   **   ~~~   ** ... Tolerance      = 0.10000000 %.\n   **   ~~~   ** ... Error          = (Load met - Load requested) / MAXIMUM(Load requested, 100)\n   **   ~~~   ** ... Actuated Node Mass Flow Rate =1.591650527E-002 kg/s\n   **   ~~~   **  Environment=RUN PERIOD 1, at Simulation time=04/21 22:00 - 22:15\n   ** Warning ** ControlCompOutput: Maximum iterations exceeded for ZoneHVAC:Baseboard:RadiantConvective:Water = ZONE HVAC BASEBOARD RADIANT CONVECTIVE WATER 1\n   **   ~~~   ** ... Load met       = 69.71233 W.\n   **   ~~~   ** ... Load requested = 70.29998 W.\n   **   ~~~   ** ... Error          = 0.58764596 %.\n   **   ~~~   ** ... Tolerance      = 0.10000000 %.\n   **   ~~~   ** ... Error          = (Load met - Load requested) / MAXIMUM(Load requested, 100)\n   **   ~~~   ** ... Actuated Node Mass Flow Rate =1.492062319E-003 kg/s\n   **   ~~~   **  Environment=RUN PERIOD 1, at Simulation time=04/23 07:08 - 07:10\n   ** Warning ** ControlCompOutput: Maximum iterations exceeded for ZoneHVAC:Baseboard:RadiantConvective:Water = ZONE HVAC BASEBOARD RADIANT CONVECTIVE WATER 1\n   **   ~~~   ** ... Load met       = 69.71508 W.\n   **   ~~~   ** ... Load requested = 70.29998 W.\n   **   ~~~   ** ... Error          = 0.58489606 %.\n   **   ~~~   ** ... Tolerance      = 0.10000000 %.\n   **   ~~~   ** ... Error          = (Load met - Load requested) / MAXIMUM(Load requested, 100)\n   **   ~~~   ** ... Actuated Node Mass Flow Rate =1.492062319E-003 kg/s\n   **   ~~~   **  Environment=RUN PERIOD 1, at Simulation time=04/23 07:08 - 07:10\n   ** Warning ** ControlCompOutput: Maximum iterations exceeded for ZoneHVAC:Baseboard:RadiantConvective:Water = ZONE HVAC BASEBOARD RADIANT CONVECTIVE WATER 1\n   **   ~~~   ** ... Load met       = 69.83084 W.\n   **   ~~~   ** ... Load requested = 70.21194 W.\n   **   ~~~   ** ... Error          = 0.38109840 %.\n   **   ~~~   ** ... Tolerance      = 0.10000000 %.\n   **   ~~~   ** ... Error          = (Load met - Load requested) / MAXIMUM(Load requested, 100)\n   **   ~~~   ** ... Actuated Node Mass Flow Rate =1.492062319E-003 kg/s\n   **   ~~~   **  Environment=RUN PERIOD 1, at Simulation time=04/23 07:12 - 07:15\n   ** Warning ** ControlCompOutput: Maximum iterations exceeded for ZoneHVAC:Baseboard:RadiantConvective:Water = ZONE HVAC BASEBOARD RADIANT CONVECTIVE WATER 1\n   **   ~~~   ** ... Load met       = 69.83060 W.\n   **   ~~~   ** ... Load requested = 70.21194 W.\n   **   ~~~   ** ... Error          = 0.38134411 %.\n   **   ~~~   ** ... Tolerance      = 0.10000000 %.\n   **   ~~~   ** ... Error          = (Load met - Load requested) / MAXIMUM(Load requested, 100)\n   **   ~~~   ** ... Actuated Node Mass Flow Rate =1.492062319E-003 kg/s\n   **   ~~~   **  Environment=RUN PERIOD 1, at Simulation time=04/23 07:12 - 07:15\n   ** Warning ** ControlCompOutput: Maximum iterations exceeded for ZoneHVAC:Baseboard:RadiantConvective:Water = ZONE HVAC BASEBOARD RADIANT CONVECTIVE WATER 1\n   **   ~~~   ** ... Load met       = 187.09885 W.\n   **   ~~~   ** ... Load requested = 189.45831 W.\n   **   ~~~   ** ... Error          = 1.24537490 %.\n   **   ~~~   ** ... Tolerance      = 0.10000000 %.\n   **   ~~~   ** ... Error          = (Load met - Load requested) / MAXIMUM(Load requested, 100)\n   **   ~~~   ** ... Actuated Node Mass Flow Rate =3.979035242E-003 kg/s\n   **   ~~~   **  Environment=RUN PERIOD 1, at Simulation time=04/23 07:30 - 07:45\n   ** Warning ** ControlCompOutput: Maximum iterations exceeded for ZoneHVAC:Baseboard:RadiantConvective:Water = ZONE HVAC BASEBOARD RADIANT CONVECTIVE WATER 1\n   **   ~~~   ** ... Load met       = 187.38339 W.\n   **   ~~~   ** ... Load requested = 189.45831 W.\n   **   ~~~   ** ... Error          = 1.09518735 %.\n   **   ~~~   ** ... Tolerance      = 0.10000000 %.\n   **   ~~~   ** ... Error          = (Load met - Load requested) / MAXIMUM(Load requested, 100)\n   **   ~~~   ** ... Actuated Node Mass Flow Rate =3.979035242E-003 kg/s\n   **   ~~~   **  Environment=RUN PERIOD 1, at Simulation time=04/23 07:30 - 07:45\n   ** Warning ** ControlCompOutput: Maximum iterations exceeded for ZoneHVAC:Baseboard:RadiantConvective:Water = ZONE HVAC BASEBOARD RADIANT CONVECTIVE WATER 1\n   **   ~~~   ** ... Load met       = 94.65795 W.\n   **   ~~~   ** ... Load requested = 95.22245 W.\n   **   ~~~   ** ... Error          = 0.56450226 %.\n   **   ~~~   ** ... Tolerance      = 0.10000000 %.\n   **   ~~~   ** ... Error          = (Load met - Load requested) / MAXIMUM(Load requested, 100)\n   **   ~~~   ** ... Actuated Node Mass Flow Rate =1.989456904E-003 kg/s\n   **   ~~~   **  Environment=RUN PERIOD 1, at Simulation time=04/23 07:45 - 07:49\n   ** Warning ** ControlCompOutput: Maximum iterations exceeded for ZoneHVAC:Baseboard:RadiantConvective:Water = ZONE HVAC BASEBOARD RADIANT CONVECTIVE WATER 1\n   **   ~~~   ** ... Load met       = 94.67722 W.\n   **   ~~~   ** ... Load requested = 95.22245 W.\n   **   ~~~   ** ... Error          = 0.54522688 %.\n   **   ~~~   ** ... Tolerance      = 0.10000000 %.\n   **   ~~~   ** ... Error          = (Load met - Load requested) / MAXIMUM(Load requested, 100)\n   **   ~~~   ** ... Actuated Node Mass Flow Rate =1.989456904E-003 kg/s\n   **   ~~~   **  Environment=RUN PERIOD 1, at Simulation time=04/23 07:45 - 07:49\n   ** Warning ** ControlCompOutput: Maximum iterations exceeded for ZoneHVAC:Baseboard:RadiantConvective:Water = ZONE HVAC BASEBOARD RADIANT CONVECTIVE WATER 1\n   **   ~~~   ** ... Load met       = 94.41737 W.\n   **   ~~~   ** ... Load requested = 96.31383 W.\n   **   ~~~   ** ... Error          = 1.89646295 %.\n   **   ~~~   ** ... Tolerance      = 0.10000000 %.\n   **   ~~~   ** ... Error          = (Load met - Load requested) / MAXIMUM(Load requested, 100)\n   **   ~~~   ** ... Actuated Node Mass Flow Rate =1.989456904E-003 kg/s\n   **   ~~~   **  Environment=RUN PERIOD 1, at Simulation time=04/23 07:49 - 07:52\n   ** Warning ** ControlCompOutput: Maximum iterations exceeded for ZoneHVAC:Baseboard:RadiantConvective:Water = ZONE HVAC BASEBOARD RADIANT CONVECTIVE WATER 1\n   **   ~~~   ** ... Load met       = 94.42350 W.\n   **   ~~~   ** ... Load requested = 96.31383 W.\n   **   ~~~   ** ... Error          = 1.89033677 %.\n   **   ~~~   ** ... Tolerance      = 0.10000000 %.\n   **   ~~~   ** ... Error          = (Load met - Load requested) / MAXIMUM(Load requested, 100)\n   **   ~~~   ** ... Actuated Node Mass Flow Rate =1.989456904E-003 kg/s\n   **   ~~~   **  Environment=RUN PERIOD 1, at Simulation time=04/23 07:49 - 07:52\n   ** Warning ** ControlCompOutput: Maximum iterations exceeded for ZoneHVAC:Baseboard:RadiantConvective:Water = ZONE HVAC BASEBOARD RADIANT CONVECTIVE WATER 1\n   **   ~~~   ** ... Load met       = 94.45799 W.\n   **   ~~~   ** ... Load requested = 98.47780 W.\n   **   ~~~   ** ... Error          = 4.01981834 %.\n   **   ~~~   ** ... Tolerance      = 0.10000000 %.\n   **   ~~~   ** ... Error          = (Load met - Load requested) / MAXIMUM(Load requested, 100)\n   **   ~~~   ** ... Actuated Node Mass Flow Rate =1.989456904E-003 kg/s\n   **   ~~~   **  Environment=RUN PERIOD 1, at Simulation time=04/23 07:53 - 07:56\n   ** Warning ** ControlCompOutput: Maximum iterations exceeded for ZoneHVAC:Baseboard:RadiantConvective:Water = ZONE HVAC BASEBOARD RADIANT CONVECTIVE WATER 1\n   **   ~~~   ** ... Load met       = 94.45824 W.\n   **   ~~~   ** ... Load requested = 98.47780 W.\n   **   ~~~   ** ... Error          = 4.01956104 %.\n   **   ~~~   ** ... Tolerance      = 0.10000000 %.\n   **   ~~~   ** ... Error          = (Load met - Load requested) / MAXIMUM(Load requested, 100)\n   **   ~~~   ** ... Actuated Node Mass Flow Rate =1.989456904E-003 kg/s\n   **   ~~~   **  Environment=RUN PERIOD 1, at Simulation time=04/23 07:53 - 07:56\n   ** Warning ** ControlCompOutput: Maximum iterations exceeded for ZoneHVAC:Baseboard:RadiantConvective:Water = ZONE HVAC BASEBOARD RADIANT CONVECTIVE WATER 1\n   **   ~~~   ** ... Load met       = 2982.99467 W.\n   **   ~~~   ** ... Load requested = 2991.75718 W.\n   **   ~~~   ** ... Error          = 0.29288852 %.\n   **   ~~~   ** ... Tolerance      = 0.10000000 %.\n   **   ~~~   ** ... Error          = (Load met - Load requested) / MAXIMUM(Load requested, 100)\n   **   ~~~   ** ... Actuated Node Mass Flow Rate =6.366638539E-002 kg/s\n   **   ~~~   **  Environment=RUN PERIOD 1, at Simulation time=04/29 07:30 - 07:45\n   ** Warning ** ControlCompOutput: Maximum iterations exceeded for ZoneHVAC:Baseboard:RadiantConvective:Water = ZONE HVAC BASEBOARD RADIANT CONVECTIVE WATER 1\n   **   ~~~   ** ... Load met       = 2983.26225 W.\n   **   ~~~   ** ... Load requested = 2991.75718 W.\n   **   ~~~   ** ... Error          = 0.28394467 %.\n   **   ~~~   ** ... Tolerance      = 0.10000000 %.\n   **   ~~~   ** ... Error          = (Load met - Load requested) / MAXIMUM(Load requested, 100)\n   **   ~~~   ** ... Actuated Node Mass Flow Rate =6.366638539E-002 kg/s\n   **   ~~~   **  Environment=RUN PERIOD 1, at Simulation time=04/29 07:30 - 07:45\n   ** Warning ** ControlCompOutput: Maximum iterations exceeded for ZoneHVAC:Baseboard:RadiantConvective:Water = ZONE HVAC BASEBOARD RADIANT CONVECTIVE WATER 1\n   **   ~~~   ** ... Load met       = 731.48982 W.\n   **   ~~~   ** ... Load requested = 734.64649 W.\n   **   ~~~   ** ... Error          = 0.42968596 %.\n   **   ~~~   ** ... Tolerance      = 0.10000000 %.\n   **   ~~~   ** ... Error          = (Load met - Load requested) / MAXIMUM(Load requested, 100)\n   **   ~~~   ** ... Actuated Node Mass Flow Rate =1.591650527E-002 kg/s\n   **   ~~~   **  Environment=RUN PERIOD 1, at Simulation time=05/06 06:05 - 06:08\n   ** Warning ** ControlCompOutput: Maximum iterations exceeded for ZoneHVAC:Baseboard:RadiantConvective:Water = ZONE HVAC BASEBOARD RADIANT CONVECTIVE WATER 1\n   **   ~~~   ** ... Load met       = 731.50087 W.\n   **   ~~~   ** ... Load requested = 734.64649 W.\n   **   ~~~   ** ... Error          = 0.42818182 %.\n   **   ~~~   ** ... Tolerance      = 0.10000000 %.\n   **   ~~~   ** ... Error          = (Load met - Load requested) / MAXIMUM(Load requested, 100)\n   **   ~~~   ** ... Actuated Node Mass Flow Rate =1.591650527E-002 kg/s\n   **   ~~~   **  Environment=RUN PERIOD 1, at Simulation time=05/06 06:05 - 06:08\n   ** Warning ** ControlCompOutput: Maximum iterations exceeded for ZoneHVAC:Baseboard:RadiantConvective:Water = ZONE HVAC BASEBOARD RADIANT CONVECTIVE WATER 1\n   **   ~~~   ** ... Load met       = 192.09174 W.\n   **   ~~~   ** ... Load requested = 193.24849 W.\n   **   ~~~   ** ... Error          = 0.59858246 %.\n   **   ~~~   ** ... Tolerance      = 0.10000000 %.\n   **   ~~~   ** ... Error          = (Load met - Load requested) / MAXIMUM(Load requested, 100)\n   **   ~~~   ** ... Actuated Node Mass Flow Rate =3.979035242E-003 kg/s\n   **   ~~~   **  Environment=RUN PERIOD 1, at Simulation time=07/28 00:52 - 00:53\n   ** Warning ** ControlCompOutput: Maximum iterations exceeded for ZoneHVAC:Baseboard:RadiantConvective:Water = ZONE HVAC BASEBOARD RADIANT CONVECTIVE WATER 1\n   **   ~~~   ** ... Load met       = 192.09174 W.\n   **   ~~~   ** ... Load requested = 193.24849 W.\n   **   ~~~   ** ... Error          = 0.59858246 %.\n   **   ~~~   ** ... Tolerance      = 0.10000000 %.\n   **   ~~~   ** ... Error          = (Load met - Load requested) / MAXIMUM(Load requested, 100)\n   **   ~~~   ** ... Actuated Node Mass Flow Rate =3.979035242E-003 kg/s\n   **   ~~~   **  Environment=RUN PERIOD 1, at Simulation time=07/28 00:52 - 00:53\n   ** Warning ** ControlCompOutput: Maximum iterations exceeded for ZoneHVAC:Baseboard:RadiantConvective:Water = ZONE HVAC BASEBOARD RADIANT CONVECTIVE WATER 1\n   **   ~~~   ** ... Load met       = 374.30552 W.\n   **   ~~~   ** ... Load requested = 376.48857 W.\n   **   ~~~   ** ... Error          = 0.57984434 %.\n   **   ~~~   ** ... Tolerance      = 0.10000000 %.\n   **   ~~~   ** ... Error          = (Load met - Load requested) / MAXIMUM(Load requested, 100)\n   **   ~~~   ** ... Actuated Node Mass Flow Rate =7.958191918E-003 kg/s\n   **   ~~~   **  Environment=RUN PERIOD 1, at Simulation time=08/10 07:45 - 07:50\n   ** Warning ** ControlCompOutput: Maximum iterations exceeded for ZoneHVAC:Baseboard:RadiantConvective:Water = ZONE HVAC BASEBOARD RADIANT CONVECTIVE WATER 1\n   **   ~~~   ** ... Load met       = 374.30552 W.\n   **   ~~~   ** ... Load requested = 376.48857 W.\n   **   ~~~   ** ... Error          = 0.57984434 %.\n   **   ~~~   ** ... Tolerance      = 0.10000000 %.\n   **   ~~~   ** ... Error          = (Load met - Load requested) / MAXIMUM(Load requested, 100)\n   **   ~~~   ** ... Actuated Node Mass Flow Rate =7.958191918E-003 kg/s\n   **   ~~~   **  Environment=RUN PERIOD 1, at Simulation time=08/10 07:45 - 07:50\n   ** Warning ** ControlCompOutput: Maximum iterations exceeded for ZoneHVAC:Baseboard:RadiantConvective:Water = ZONE HVAC BASEBOARD RADIANT CONVECTIVE WATER 1\n   **   ~~~   ** ... Load met       = 9.44806 W.\n   **   ~~~   ** ... Load requested = 10.76746 W.\n   **   ~~~   ** ... Error          = 1.31940710 %.\n   **   ~~~   ** ... Tolerance      = 0.10000000 %.\n   **   ~~~   ** ... Error          = (Load met - Load requested) / MAXIMUM(Load requested, 100)\n   **   ~~~   ** ... Actuated Node Mass Flow Rate =4.972731503E-004 kg/s\n   **   ~~~   **  Environment=RUN PERIOD 1, at Simulation time=10/05 21:45 - 22:00\n   ** Warning ** ControlCompOutput: Maximum iterations exceeded for ZoneHVAC:Baseboard:RadiantConvective:Water = ZONE HVAC BASEBOARD RADIANT CONVECTIVE WATER 1\n   **   ~~~   ** ... Load met       = 1401.39609 W.\n   **   ~~~   ** ... Load requested = 1399.42602 W.\n   **   ~~~   ** ... Error          = 0.14077698 %.\n   **   ~~~   ** ... Tolerance      = 0.10000000 %.\n   **   ~~~   ** ... Error          = (Load met - Load requested) / MAXIMUM(Load requested, 100)\n   **   ~~~   ** ... Actuated Node Mass Flow Rate =2.984379651E-002 kg/s\n   **   ~~~   **  Environment=RUN PERIOD 1, at Simulation time=10/28 07:56 - 08:00\n   ** Warning ** ControlCompOutput: Maximum iterations exceeded for ZoneHVAC:Baseboard:RadiantConvective:Water = ZONE HVAC BASEBOARD RADIANT CONVECTIVE WATER 1\n   **   ~~~   ** ... Load met       = 1401.39864 W.\n   **   ~~~   ** ... Load requested = 1399.42602 W.\n   **   ~~~   ** ... Error          = 0.14095920 %.\n   **   ~~~   ** ... Tolerance      = 0.10000000 %.\n   **   ~~~   ** ... Error          = (Load met - Load requested) / MAXIMUM(Load requested, 100)\n   **   ~~~   ** ... Actuated Node Mass Flow Rate =2.984379651E-002 kg/s\n   **   ~~~   **  Environment=RUN PERIOD 1, at Simulation time=10/28 07:56 - 08:00\n   ************* Simulation Error Summary *************\n   ************* There are 1 unused schedules in input.\n   ************* There are 1 unused week schedules in input.\n   ************* There are 11 unused day schedules in input.\n   ************* Use Output:Diagnostics,DisplayUnusedSchedules; to see them.\n   *************\n   ************* ===== Recurring Error Summary =====\n   ************* The following recurring error messages occurred.\n   *************\n   *************  ** Warning ** ControlCompOutput: Maximum iterations error for ZoneHVAC:Baseboard:RadiantConvective:Water = ZONE HVAC BASEBOARD RADIANT CONVECTIVE WATER 1\n   *************  **   ~~~   **   This error occurred 50 total times;\n   *************  **   ~~~   **   during Warmup 0 times;\n   *************  **   ~~~   **   during Sizing 0 times.\n   *************  **   ~~~   **   Max=4.019818 %  Min=0.140777 %\n   *************\n   *************\n   ************* ===== Final Error Summary =====\n   ************* The following error categories occurred.  Consider correcting or noting.\n   ************* Nominally Unused Constructions\n   ************* ..The nominally unused constructions warning is provided to alert you to potential conditions that can cause\n   ************* ..extra time during simulation. Each construction is calculated by the algorithm indicated in the HeatBalanceAlgorithm\n   ************* ..object. You may remove the constructions indicated (when you use the DisplayExtraWarnings option).\n   *************\n   ************* EnergyPlus Warmup Error Summary. During Warmup: 0 Warning; 0 Severe Errors.\n   ************* EnergyPlus Sizing Error Summary. During Sizing: 15 Warning; 0 Severe Errors.\n   ************* EnergyPlus Completed Successfully-- 66 Warning; 0 Severe Errors; ",
  "seed_file": "in.osm",
  "steps": [
    {
      "arguments": {
      },
      "measure_dir_name": "openstudio_results",
      "result": {
        "stderr": "",
        "stdout": "",
        "step_errors": [

        ],
        "step_final_condition": "Generated report with 21 sections to ./report.html.",
        "step_info": [

        ],
        "step_initial_condition": "Gathering data from EnergyPlus SQL file and OSM model.",
        "step_result": "Success",
        "step_values": [
          {
            "name": "building_summary_section",
            "value": true
          },
          {
            "name": "annual_overview_section",
            "value": true
          },
          {
            "name": "monthly_overview_section",
            "value": true
          },
          {
            "name": "utility_bills_rates_section",
            "value": true
          },
          {
            "name": "envelope_section_section",
            "value": true
          },
          {
            "name": "space_type_breakdown_section",
            "value": true
          },
          {
            "name": "space_type_details_section",
            "value": true
          },
          {
            "name": "interior_lighting_section",
            "value": true
          },
          {
            "name": "plug_loads_section",
            "value": true
          },
          {
            "name": "exterior_light_section",
            "value": true
          },
          {
            "name": "water_use_section",
            "value": true
          },
          {
            "name": "hvac_load_profile",
            "value": true
          },
          {
            "name": "zone_condition_section",
            "value": true
          },
          {
            "name": "zone_summary_section",
            "value": true
          },
          {
            "name": "zone_equipment_detail_section",
            "value": true
          },
          {
            "name": "air_loops_detail_section",
            "value": true
          },
          {
            "name": "plant_loops_detail_section",
            "value": true
          },
          {
            "name": "outdoor_air_section",
            "value": true
          },
          {
            "name": "cost_summary_section",
            "value": true
          },
          {
            "name": "source_energy_section",
            "value": true
          },
          {
            "name": "schedules_overview_section",
            "value": true
          },
          {
            "display_name": "Building 1",
            "name": "building_name",
            "value": "building_name"
          },
          {
            "name": "total_site_energy",
            "units": "kBtu",
            "value": 4333666.306523767
          },
          {
            "name": "net_site_energy",
            "units": "kBtu",
            "value": 4333666.306523767
          },
          {
            "name": "total_building_area",
            "units": "ft^2",
            "value": 161458.65625064584
          },
          {
            "name": "total_site_eui",
            "units": "kBtu/ft^2",
            "value": 26.840718281441994
          },
          {
            "name": "eui",
            "units": "kBtu/ft^2",
            "value": 26.840718281441994
          },
          {
            "name": "unmet_hours_during_heating",
            "units": "hr",
            "value": 5591.75
          },
          {
            "name": "unmet_hours_during_cooling",
            "units": "hr",
            "value": 4347
          },
          {
            "name": "unmet_hours_during_occupied_heating",
            "units": "hr",
            "value": 2620.75
          },
          {
            "name": "unmet_hours_during_occupied_cooling",
            "units": "hr",
            "value": 3429.75
          },
          {
            "name": "unmet_hours_tolerance_heating",
            "units": "F",
            "value": 0.36
          },
          {
            "name": "unmet_hours_tolerance_cooling",
            "units": "F",
            "value": 0.36
          },
          {
            "name": "end_use_heating",
            "units": "kBtu",
            "value": 874067.470181738
          },
          {
            "name": "end_use_cooling",
            "units": "kBtu",
            "value": 229570.78471108858
          },
          {
            "name": "end_use_interior_lighting",
            "units": "kBtu",
            "value": 1566921.785130773
          },
          {
            "name": "end_use_exterior_lighting",
            "units": "kBtu",
            "value": 0
          },
          {
            "name": "end_use_interior_equipment",
            "units": "kBtu",
            "value": 1566921.785130773
          },
          {
            "name": "end_use_exterior_equipment",
            "units": "kBtu",
            "value": 0
          },
          {
            "name": "end_use_fans",
            "units": "kBtu",
            "value": 63361.574492945256
          },
          {
            "name": "end_use_pumps",
            "units": "kBtu",
            "value": 32803.95053404391
          },
          {
            "name": "end_use_heat_rejection",
            "units": "kBtu",
            "value": 0
          },
          {
            "name": "end_use_humidification",
            "units": "kBtu",
            "value": 0
          },
          {
            "name": "end_use_heat_recovery",
            "units": "kBtu",
            "value": 0
          },
          {
            "name": "end_use_water_systems",
            "units": "kBtu",
            "value": 0
          },
          {
            "name": "end_use_refrigeration",
            "units": "kBtu",
            "value": 0
          },
          {
            "name": "end_use_generators",
            "units": "kBtu",
            "value": 0
          },
          {
            "name": "fuel_electricity",
            "units": "kBtu",
            "value": 3659247.034564827
          },
          {
            "name": "fuel_natural_gas",
            "units": "kBtu",
            "value": 402016.63158089353
          },
          {
            "name": "fuel_additional_fuel",
            "units": "kBtu",
            "value": 0
          },
          {
            "name": "fuel_district_cooling",
            "units": "kBtu",
            "value": 223116.15012175488
          },
          {
            "name": "fuel_district_heating",
            "units": "kBtu",
            "value": 49286.4902562925
          },
          {
            "name": "end_use_electricity_heating",
            "units": "kWh",
            "value": 123900
          },
          {
            "name": "end_use_electricity_cooling",
            "units": "kWh",
            "value": 1891.6666666666667
          },
          {
            "name": "end_use_electricity_interior_lighting",
            "units": "kWh",
            "value": 459219.44444444444
          },
          {
            "name": "end_use_electricity_exterior_lighting",
            "units": "kWh",
            "value": 0
          },
          {
            "name": "end_use_electricity_interior_equipment",
            "units": "kWh",
            "value": 459219.44444444444
          },
          {
            "name": "end_use_electricity_exterior_equipment",
            "units": "kWh",
            "value": 0
          },
          {
            "name": "end_use_electricity_fans",
            "units": "kWh",
            "value": 18569.444444444445
          },
          {
            "name": "end_use_electricity_pumps",
            "units": "kWh",
            "value": 9613.888888888889
          },
          {
            "name": "end_use_electricity_heat_rejection",
            "units": "kWh",
            "value": 0
          },
          {
            "name": "end_use_electricity_humidification",
            "units": "kWh",
            "value": 0
          },
          {
            "name": "end_use_electricity_heat_recovery",
            "units": "kWh",
            "value": 0
          },
          {
            "name": "end_use_electricity_water_systems",
            "units": "kWh",
            "value": 0
          },
          {
            "name": "end_use_electricity_refrigeration",
            "units": "kWh",
            "value": 0
          },
          {
            "name": "end_use_electricity_generators",
            "units": "kWh",
            "value": 0
          },
          {
            "name": "end_use_natural_gas_heating",
            "units": "therms",
            "value": 4020.942
          },
          {
            "name": "end_use_natural_gas_cooling",
            "units": "therms",
            "value": 0
          },
          {
            "name": "end_use_natural_gas_interior_lighting",
            "units": "therms",
            "value": 0
          },
          {
            "name": "end_use_natural_gas_exterior_lighting",
            "units": "therms",
            "value": 0
          },
          {
            "name": "end_use_natural_gas_interior_equipment",
            "units": "therms",
            "value": 0
          },
          {
            "name": "end_use_natural_gas_exterior_equipment",
            "units": "therms",
            "value": 0
          },
          {
            "name": "end_use_natural_gas_fans",
            "units": "therms",
            "value": 0
          },
          {
            "name": "end_use_natural_gas_pumps",
            "units": "therms",
            "value": 0
          },
          {
            "name": "end_use_natural_gas_heat_rejection",
            "units": "therms",
            "value": 0
          },
          {
            "name": "end_use_natural_gas_humidification",
            "units": "therms",
            "value": 0
          },
          {
            "name": "end_use_natural_gas_heat_recovery",
            "units": "therms",
            "value": 0
          },
          {
            "name": "end_use_natural_gas_water_systems",
            "units": "therms",
            "value": 0
          },
          {
            "name": "end_use_natural_gas_refrigeration",
            "units": "therms",
            "value": 0
          },
          {
            "name": "end_use_natural_gas_generators",
            "units": "therms",
            "value": 0
          },
          {
            "name": "electricity_heating_ip",
            "units": "kWh",
            "value": 123899.43333333333
          },
          {
            "name": "electricity_cooling_ip",
            "units": "kWh",
            "value": 1892.929943213889
          },
          {
            "name": "electricity_interior_lighting_ip",
            "units": "kWh",
            "value": 459220.8333333333
          },
          {
            "name": "electricity_exterior_lighting_ip",
            "units": "kWh",
            "value": 0
          },
          {
            "name": "electricity_interior_equipment_ip",
            "units": "kWh",
            "value": 459220.8333333333
          },
          {
            "name": "electricity_exterior_equipment_ip",
            "units": "kWh",
            "value": 0
          },
          {
            "name": "electricity_fans_ip",
            "units": "kWh",
            "value": 18569.919444444444
          },
          {
            "name": "electricity_pumps_ip",
            "units": "kWh",
            "value": 9614.827777777778
          },
          {
            "name": "electricity_heat_rejection_ip",
            "units": "kWh",
            "value": 0
          },
          {
            "name": "electricity_humidification_ip",
            "units": "kWh",
            "value": 0
          },
          {
            "name": "electricity_heat_recovery_ip",
            "units": "kWh",
            "value": 0
          },
          {
            "name": "electricity_water_systems_ip",
            "units": "kWh",
            "value": 0
          },
          {
            "name": "electricity_refrigeration_ip",
            "units": "kWh",
            "value": 0
          },
          {
            "name": "electricity_generators_ip",
            "units": "kWh",
            "value": 0
          },
          {
            "name": "electricity_ip",
            "units": "kWh",
            "value": 1072418.7771654362
          },
          {
            "name": "natural_gas_heating_ip",
            "units": "MBtu",
            "value": 402.01196832066154
          },
          {
            "name": "natural_gas_cooling_ip",
            "units": "MBtu",
            "value": 0
          },
          {
            "name": "natural_gas_interior_lighting_ip",
            "units": "MBtu",
            "value": 0
          },
          {
            "name": "natural_gas_exterior_lighting_ip",
            "units": "MBtu",
            "value": 0
          },
          {
            "name": "natural_gas_interior_equipment_ip",
            "units": "MBtu",
            "value": 0
          },
          {
            "name": "natural_gas_exterior_equipment_ip",
            "units": "MBtu",
            "value": 0
          },
          {
            "name": "natural_gas_fans_ip",
            "units": "MBtu",
            "value": 0
          },
          {
            "name": "natural_gas_pumps_ip",
            "units": "MBtu",
            "value": 0
          },
          {
            "name": "natural_gas_heat_rejection_ip",
            "units": "MBtu",
            "value": 0
          },
          {
            "name": "natural_gas_humidification_ip",
            "units": "MBtu",
            "value": 0
          },
          {
            "name": "natural_gas_heat_recovery_ip",
            "units": "MBtu",
            "value": 0
          },
          {
            "name": "natural_gas_water_systems_ip",
            "units": "MBtu",
            "value": 0
          },
          {
            "name": "natural_gas_refrigeration_ip",
            "units": "MBtu",
            "value": 0
          },
          {
            "name": "natural_gas_generators_ip",
            "units": "MBtu",
            "value": 0
          },
          {
            "name": "natural_gas_ip",
            "units": "MBtu",
            "value": 402.01196832066154
          },
          {
            "name": "additional_fuel_heating_ip",
            "units": "MBtu",
            "value": 0
          },
          {
            "name": "additional_fuel_cooling_ip",
            "units": "MBtu",
            "value": 0
          },
          {
            "name": "additional_fuel_interior_lighting_ip",
            "units": "MBtu",
            "value": 0
          },
          {
            "name": "additional_fuel_exterior_lighting_ip",
            "units": "MBtu",
            "value": 0
          },
          {
            "name": "additional_fuel_interior_equipment_ip",
            "units": "MBtu",
            "value": 0
          },
          {
            "name": "additional_fuel_exterior_equipment_ip",
            "units": "MBtu",
            "value": 0
          },
          {
            "name": "additional_fuel_fans_ip",
            "units": "MBtu",
            "value": 0
          },
          {
            "name": "additional_fuel_pumps_ip",
            "units": "MBtu",
            "value": 0
          },
          {
            "name": "additional_fuel_heat_rejection_ip",
            "units": "MBtu",
            "value": 0
          },
          {
            "name": "additional_fuel_humidification_ip",
            "units": "MBtu",
            "value": 0
          },
          {
            "name": "additional_fuel_heat_recovery_ip",
            "units": "MBtu",
            "value": 0
          },
          {
            "name": "additional_fuel_water_systems_ip",
            "units": "MBtu",
            "value": 0
          },
          {
            "name": "additional_fuel_refrigeration_ip",
            "units": "MBtu",
            "value": 0
          },
          {
            "name": "additional_fuel_generators_ip",
            "units": "MBtu",
            "value": 0
          },
          {
            "name": "additional_fuel_ip",
            "units": "MBtu",
            "value": 0
          },
          {
            "name": "district_cooling_heating_ip",
            "units": "MBtu",
            "value": 0
          },
          {
            "name": "district_cooling_cooling_ip",
            "units": "MBtu",
            "value": 223.12026364805703
          },
          {
            "name": "district_cooling_interior_lighting_ip",
            "units": "MBtu",
            "value": 0
          },
          {
            "name": "district_cooling_exterior_lighting_ip",
            "units": "MBtu",
            "value": 0
          },
          {
            "name": "district_cooling_interior_equipment_ip",
            "units": "MBtu",
            "value": 0
          },
          {
            "name": "district_cooling_exterior_equipment_ip",
            "units": "MBtu",
            "value": 0
          },
          {
            "name": "district_cooling_fans_ip",
            "units": "MBtu",
            "value": 0
          },
          {
            "name": "district_cooling_pumps_ip",
            "units": "MBtu",
            "value": 0
          },
          {
            "name": "district_cooling_heat_rejection_ip",
            "units": "MBtu",
            "value": 0
          },
          {
            "name": "district_cooling_humidification_ip",
            "units": "MBtu",
            "value": 0
          },
          {
            "name": "district_cooling_heat_recovery_ip",
            "units": "MBtu",
            "value": 0
          },
          {
            "name": "district_cooling_water_systems_ip",
            "units": "MBtu",
            "value": 0
          },
          {
            "name": "district_cooling_refrigeration_ip",
            "units": "MBtu",
            "value": 0
          },
          {
            "name": "district_cooling_generators_ip",
            "units": "MBtu",
            "value": 0
          },
          {
            "name": "district_cooling_ip",
            "units": "MBtu",
            "value": 223.12026364805703
          },
          {
            "name": "district_heating_heating_ip",
            "units": "MBtu",
            "value": 49.28579312536035
          },
          {
            "name": "district_heating_cooling_ip",
            "units": "MBtu",
            "value": 0
          },
          {
            "name": "district_heating_interior_lighting_ip",
            "units": "MBtu",
            "value": 0
          },
          {
            "name": "district_heating_exterior_lighting_ip",
            "units": "MBtu",
            "value": 0
          },
          {
            "name": "district_heating_interior_equipment_ip",
            "units": "MBtu",
            "value": 0
          },
          {
            "name": "district_heating_exterior_equipment_ip",
            "units": "MBtu",
            "value": 0
          },
          {
            "name": "district_heating_fans_ip",
            "units": "MBtu",
            "value": 0
          },
          {
            "name": "district_heating_pumps_ip",
            "units": "MBtu",
            "value": 0
          },
          {
            "name": "district_heating_heat_rejection_ip",
            "units": "MBtu",
            "value": 0
          },
          {
            "name": "district_heating_humidification_ip",
            "units": "MBtu",
            "value": 0
          },
          {
            "name": "district_heating_heat_recovery_ip",
            "units": "MBtu",
            "value": 0
          },
          {
            "name": "district_heating_water_systems_ip",
            "units": "MBtu",
            "value": 0
          },
          {
            "name": "district_heating_refrigeration_ip",
            "units": "MBtu",
            "value": 0
          },
          {
            "name": "district_heating_generators_ip",
            "units": "MBtu",
            "value": 0
          },
          {
            "name": "district_heating_ip",
            "units": "MBtu",
            "value": 49.28579312536035
          },
          {
            "name": "water_heating_ip",
            "units": "MBtu",
            "value": 0
          },
          {
            "name": "water_cooling_ip",
            "units": "MBtu",
            "value": 0
          },
          {
            "name": "water_interior_lighting_ip",
            "units": "MBtu",
            "value": 0
          },
          {
            "name": "water_exterior_lighting_ip",
            "units": "MBtu",
            "value": 0
          },
          {
            "name": "water_interior_equipment_ip",
            "units": "MBtu",
            "value": 0
          },
          {
            "name": "water_exterior_equipment_ip",
            "units": "MBtu",
            "value": 0
          },
          {
            "name": "water_fans_ip",
            "units": "MBtu",
            "value": 0
          },
          {
            "name": "water_pumps_ip",
            "units": "MBtu",
            "value": 0
          },
          {
            "name": "water_heat_rejection_ip",
            "units": "MBtu",
            "value": 0
          },
          {
            "name": "water_humidification_ip",
            "units": "MBtu",
            "value": 0
          },
          {
            "name": "water_heat_recovery_ip",
            "units": "MBtu",
            "value": 0
          },
          {
            "name": "water_water_systems_ip",
            "units": "MBtu",
            "value": 0
          },
          {
            "name": "water_refrigeration_ip",
            "units": "MBtu",
            "value": 0
          },
          {
            "name": "water_generators_ip",
            "units": "MBtu",
            "value": 0
          },
          {
            "name": "water_ip",
            "units": "MBtu",
            "value": 0
          },
          {
            "name": "ashrae_189_1_2009_ext_roof_iead_climate_zone_2_5",
            "units": "ft^2",
            "value": 53819.55208354861
          },
          {
            "name": "ashrae_189_1_2009_ext_wall_steel_frame_climate_zone_4_8",
            "units": "ft^2",
            "value": 23250.046500093013
          },
          {
            "name": "ashrae_189_1_2009_ext_window_climate_zone_4_5",
            "units": "ft^2",
            "value": 15500.031000061985
          },
          {
            "name": "gross_window_wall_ratio",
            "units": "%",
            "value": 40
          },
          {
            "name": "gross_window_wall_ratio_conditioned",
            "units": "%",
            "value": 40
          },
          {
            "name": "skylight_roof_ratio",
            "units": "%",
            "value": 0
          },
          {
            "name": "space_type_baseline_model_space_type",
            "units": "ft^2",
            "value": 161458.65625064584
          },
          {
            "name": "exterior_lighting_total_power",
            "units": "W",
            "value": 0
          },
          {
            "name": "exterior_lighting_total_consumption",
            "units": "kWh",
            "value": 1270072.2222222222
          },
          {
            "name": "inflation_approach",
            "value": "Constant Dollar"
          },
          {
            "name": "analysis_length",
            "units": "yrs",
            "value": 25
          },
          {
            "name": "annual_peak_electric_demand",
            "units": "kW",
            "value": 352.07462
          },
          {
            "name": "first_year_capital_cost",
            "units": "$",
            "value": 0
          },
          {
            "name": "annual_utility_cost",
            "units": "$",
            "value": 0
          },
          {
            "name": "total_lifecycle_cost",
            "units": "$",
            "value": 0
          }
        ],
        "step_warnings": [

        ]
      }
    }
  ],
  "weather_file": "../../weatherdata/USA_IL_Chicago-OHare.Intl.AP.725300_TMY3.epw"
}