{
   "completed_at" : "20180205T201133Z",
   "completed_status" : "Fail",
   "current_step" : 0,
   "eplusout_err" : "Program Version,EnergyPlus, Version 8.8.0-d5f2442b35, YMD=2018.02.05 20:11,IDD_Version 8.8.0\n   ************* Beginning Zone Sizing Calculations\n   ** Warning ** ProcessScheduleInput: Schedule:Day:Interval=\"SCHEDULE DAY 10\", Blank Schedule Type Limits Name input -- will not be validated.\n   ** Warning ** ProcessScheduleInput: Schedule:Day:Interval=\"SCHEDULE DAY 11\", Blank Schedule Type Limits Name input -- will not be validated.\n   ** Warning ** ProcessScheduleInput: Schedule:Day:Interval=\"SCHEDULE DAY 2\", Blank Schedule Type Limits Name input -- will not be validated.\n   ** Warning ** ProcessScheduleInput: Schedule:Day:Interval=\"SCHEDULE DAY 3\", Blank Schedule Type Limits Name input -- will not be validated.\n   ** Warning ** ProcessScheduleInput: Schedule:Day:Interval=\"SCHEDULE DAY 4\", Blank Schedule Type Limits Name input -- will not be validated.\n   ** Warning ** ProcessScheduleInput: Schedule:Day:Interval=\"SCHEDULE DAY 5\", Blank Schedule Type Limits Name input -- will not be validated.\n   ** Warning ** ProcessScheduleInput: Schedule:Day:Interval=\"SCHEDULE DAY 6\", Blank Schedule Type Limits Name input -- will not be validated.\n   ** Warning ** ProcessScheduleInput: Schedule:Day:Interval=\"SCHEDULE DAY 7\", Blank Schedule Type Limits Name input -- will not be validated.\n   ** Warning ** ProcessScheduleInput: Schedule:Day:Interval=\"SCHEDULE DAY 8\", Blank Schedule Type Limits Name input -- will not be validated.\n   ** Warning ** ProcessScheduleInput: Schedule:Day:Interval=\"SCHEDULE DAY 9\", Blank Schedule Type Limits Name input -- will not be validated.\n   ** Warning ** ProcessScheduleInput: Schedule:Constant=\"ALWAYS OFF DISCRETE\", Blank Schedule Type Limits Name input -- will not be validated.\n   ** Warning ** ProcessScheduleInput: Schedule:Constant=\"ALWAYS ON CONTINUOUS\", Blank Schedule Type Limits Name input -- will not be validated.\n   ** Warning ** GetHTSurfaceData: Surfaces with interface to Ground found but no \"Ground Temperatures\" were input.\n   **   ~~~   ** Found first in surface=SURFACE 25\n   **   ~~~   ** Defaults, constant throughout the year of (18.0) will be used.\n   ** Warning ** CheckUsedConstructions: There are 6 nominally unused constructions in input.\n   **   ~~~   ** For explicit details on each unused construction, use Output:Diagnostics,DisplayExtraWarnings;\n   ** Warning ** GetSimpleAirModelInputs: ZoneInfiltration:DesignFlowRate=\"STORY 1 CORE THERMAL ZONE BASELINE MODEL INFILTRATION\", Design Flow Rate Calculation Method specifies Flow per Exterior Surface Area, but Exterior Surface Area = 0.  0 Infiltration will result.\n   ** Warning ** GetSimpleAirModelInputs: ZoneInfiltration:DesignFlowRate=\"STORY 2 CORE THERMAL ZONE BASELINE MODEL INFILTRATION\", Design Flow Rate Calculation Method specifies Flow per Exterior Surface Area, but Exterior Surface Area = 0.  0 Infiltration will result.\n   ************* Beginning System Sizing Calculations\n   ** Warning ** Fan:ZoneExhaust=\"FAN ZONE EXHAUST 1\" has specified 0.0 max air flow rate. It will not be used in the simulation.\n   ************* Beginning Plant Sizing Calculations\n   ** Warning ** In calculating the design coil UA for Coil:Cooling:Water COIL COOLING WATER 3\n   **   ~~~   ** no apparatus dew-point can be found for the initial entering and leaving conditions;\n   **   ~~~   ** the coil outlet design conditions will be changed to correct the problem.\n   **   ~~~   ** The initial design conditions are: Tair,in = 29.5988\n   **   ~~~   **                                    Wair,in = 1.496113E-002\n   **   ~~~   **                                    Twater,in = 7.2200\n   **   ~~~   **                                    Tair,out = 12.8000\n   **   ~~~   **                                    Wair,out = 8.478624E-003\n   **   ~~~   ** The revised design conditions are: Tair,out = 12.7997\n   **   ~~~   **                                    Wair,out = 8.478742E-003\n   ** Severe  ** Plant temperatures are getting far too hot, check controls and relative loads and capacities\n   **   ~~~   **  During Warmup, Environment=CHICAGO OHARE INTL AP ANN HTG 99.6% CONDNS DB, at Simulation time=01/21 23:45 - 24:00\n   **   ~~~   ** PlantLoop Name (DemandSide)= CHILLED WATER PLANT\n   **   ~~~   ** PlantLoop Setpoint Temperature=6.7 {C}\n   **   ~~~   ** PlantLoop Inlet Node (SupplySide) does not have a Setpoint.\n   **   ~~~   ** PlantLoop Inlet Node (DemandSide) does not have a Setpoint.\n   **   ~~~   ** PlantLoop Outlet Node (SupplySide) has a Setpoint.\n   **   ~~~   ** PlantLoop Outlet Node (DemandSide) does not have a Setpoint.\n   **   ~~~   ** PlantLoop Outlet Node (DemandSide) \"NODE 46\" has temperature=923.5 {C}\n   **   ~~~   ** PlantLoop  Inlet Node (DemandSide) \"NODE 45\" has temperature=99.5 {C}\n   **   ~~~   ** PlantLoop Minimum Temperature=0.0 {C}\n   **   ~~~   ** PlantLoop Maximum Temperature=100.0 {C}\n   **   ~~~   ** PlantLoop Flow Request (SupplySide)=0.0 {kg/s}\n   **   ~~~   ** PlantLoop Flow Request (DemandSide)=23.2 {kg/s}\n   **   ~~~   ** PlantLoop Node (DemandSide) \"NODE 46\" has mass flow rate =23.2 {kg/s}\n   **   ~~~   ** PlantLoop PumpHeat (SupplySide)=5493.1 {W}\n   **   ~~~   ** PlantLoop PumpHeat (DemandSide)=0.0 {W}\n   **   ~~~   ** PlantLoop Cooling Demand=84932083.7 {W}\n   **   ~~~   ** PlantLoop Heating Demand=0.0 {W}\n   **   ~~~   ** PlantLoop Demand not Dispatched=84263241.3 {W}\n   **   ~~~   ** PlantLoop Unmet Demand=-9129520.7 {W}\n   **   ~~~   ** PlantLoop Capacity=668842.3 {W}\n   **   ~~~   ** PlantLoop Capacity (SupplySide)=668842.3 {W}\n   **   ~~~   ** PlantLoop Capacity (DemandSide)=0.0 {W}\n   **   ~~~   ** PlantLoop Operation Scheme=CHILLED WATER PLANT OPERATION SCHEMES\n   **   ~~~   ** PlantLoop Operation Dispatched Load = 668842.3 {W}\n   **   ~~~   ** PlantLoop Operation Dispatched Load (SupplySide)= 668842.3 {W}\n   **   ~~~   ** PlantLoop Operation Dispatched Load (DemandSide)= 0.0 {W}\n   **   ~~~   ** Branches on the Loop.\n   **   ~~~   ** Demand Branches:\n   **   ~~~   **   CHILLED WATER PLANT DEMAND INLET BRANCH\n   **   ~~~   **     Components on Branch:\n   **   ~~~   **       PIPE:ADIABATIC:CHILLED WATER PLANT DEMAND INLET PIPE\n   **   ~~~   **   CHILLED WATER PLANT DEMAND BRANCH 1\n   **   ~~~   **     Components on Branch:\n   **   ~~~   **       COIL:COOLING:WATER:COIL COOLING WATER 1\n   **   ~~~   **   CHILLED WATER PLANT DEMAND BRANCH 2\n   **   ~~~   **     Components on Branch:\n   **   ~~~   **       COIL:COOLING:WATER:COIL COOLING WATER 2\n   **   ~~~   **   CHILLED WATER PLANT DEMAND BRANCH 3\n   **   ~~~   **     Components on Branch:\n   **   ~~~   **       COIL:COOLING:WATER:COIL COOLING WATER 3\n   **   ~~~   **   CHILLED WATER PLANT DEMAND BYPASS BRANCH\n   **   ~~~   **     Components on Branch:\n   **   ~~~   **       PIPE:ADIABATIC:CHILLED WATER PLANT DEMAND BYPASS PIPE\n   **   ~~~   **   CHILLED WATER PLANT DEMAND OUTLET BRANCH\n   **   ~~~   **     Components on Branch:\n   **   ~~~   **       PIPE:ADIABATIC:CHILLED WATER PLANT DEMAND OUTLET PIPE\n   **   ~~~   ** Supply Branches:\n   **   ~~~   **   CHILLED WATER PLANT SUPPLY INLET BRANCH\n   **   ~~~   **     Components on Branch:\n   **   ~~~   **       PUMP:VARIABLESPEED:PUMP VARIABLE SPEED 3\n   **   ~~~   **   CHILLED WATER PLANT SUPPLY BRANCH 1\n   **   ~~~   **     Components on Branch:\n   **   ~~~   **       DISTRICTCOOLING:DISTRICT COOLING 1\n   **   ~~~   **   CHILLED WATER PLANT SUPPLY BRANCH 2\n   **   ~~~   **     Components on Branch:\n   **   ~~~   **       PIPE:ADIABATIC:PIPE ADIABATIC 5\n   **   ~~~   **   CHILLED WATER PLANT SUPPLY OUTLET BRANCH\n   **   ~~~   **     Components on Branch:\n   **   ~~~   **       PIPE:ADIABATIC:CHILLED WATER PLANT SUPPLY OUTLET PIPE\n   **   ~~~   ** *************************\n   **   ~~~   ** Possible things to look for to correct this problem are:\n   **   ~~~   **   Capacity, Operation Scheme, Mass flow problems, Pump Heat building up over time.\n   **   ~~~   **   Try a shorter runperiod to stop before it fatals and look at\n   **   ~~~   **     lots of node time series data to see what is going wrong.\n   **   ~~~   **   If this is happening during Warmup, you can use Output:Diagnostics,ReportDuringWarmup;\n   **   ~~~   **   This is detected at the loop level, but the typical problems are in the components.\n   **  Fatal  ** CheckForRunawayPlantTemps: Simulation terminated because of run away plant temperatures, too hot\n   ...Summary of Errors that led to program termination:\n   ..... Reference severe error count=1\n   ..... Last severe error=Plant temperatures are getting far too hot, check controls and relative loads and capacities\n   ************* Warning:  Node connection errors not checked - most system input has not been read (see previous warning).\n   ************* Fatal error -- final processing.  Program exited before simulations began.  See previous error messages.\n   *************\n   ************* ===== Recurring Error Summary =====\n   ************* The following recurring error messages occurred.\n   *************\n   *************  ** Warning ** Plant loop exceeding upper temperature limit, PlantLoop=\"CHILLED WATER PLANT\"\n   *************  **   ~~~   **   This error occurred 2 total times;\n   *************  **   ~~~   **   during Warmup 2 times;\n   *************  **   ~~~   **   during Sizing 0 times.\n   *************  **   ~~~   **   Max=923.478468\n   *************\n   *************\n   ************* ===== Final Error Summary =====\n   ************* The following error categories occurred.  Consider correcting or noting.\n   ************* Nominally Unused Constructions\n   ************* ..The nominally unused constructions warning is provided to alert you to potential conditions that can cause\n   ************* ..extra time during simulation. Each construction is calculated by the algorithm indicated in the HeatBalanceAlgorithm\n   ************* ..object. You may remove the constructions indicated (when you use the DisplayExtraWarnings option).\n   *************\n   ************* EnergyPlus Warmup Error Summary. During Warmup: 0 Warning; 0 Severe Errors.\n   ************* EnergyPlus Sizing Error Summary. During Sizing: 17 Warning; 0 Severe Errors.\n   ************* EnergyPlus Terminated--Fatal Error Detected. 20 Warning; 1 Severe Errors; Elapsed Time=00hr 00min  0.55sec\n",
   "hash" : "28679BD6",
   "seed_file" : "in.osm",
   "started_at" : "20180205T201122Z",
   "steps" : [
      {
         "arguments" : {},
         "measure_dir_name" : "openstudio_results"
      }
   ],
   "updated_at" : "20180205T201133Z",
   "weather_file" : "../../weatherdata/USA_IL_Chicago-OHare.Intl.AP.725300_TMY3.epw"
}
