{
   "completed_at" : "20180205T213700Z",
   "completed_status" : "Fail",
   "current_step" : 0,
   "eplusout_err" : "Program Version,EnergyPlus, Version 8.8.0-7c3bbe4830, YMD=2018.02.05 21:36,IDD_Version 8.8.0\n   ************* Beginning Zone Sizing Calculations\n",
   "hash" : "0ED35865",
   "seed_file" : "in.osm",
   "started_at" : "20180205T213648Z",
   "steps" : [
      {
         "arguments" : {},
         "measure_dir_name" : "openstudio_results"
      }
   ],
   "updated_at" : "20180205T213700Z",
   "weather_file" : "../../weatherdata/USA_IL_Chicago-OHare.Intl.AP.725300_TMY3.epw"
}
