{
  "completed_status": "Fail",
  "current_step": 0,
  "eplusout_err": [
    "Program Version,EnergyPlus, Version 8.8.0-d5f2442b35, IDD_Version 8.8.0",
    "   ************* Beginning Zone Sizing Calculations",
    "   ** Warning ** ProcessScheduleInput: Schedule:Day:Interval=\"SCHEDULE DAY 10\", Blank Schedule Type Limits Name input -- will not be validated.",
    "   ** Warning ** ProcessScheduleInput: Schedule:Day:Interval=\"SCHEDULE DAY 11\", Blank Schedule Type Limits Name input -- will not be validated.",
    "   ** Warning ** ProcessScheduleInput: Schedule:Day:Interval=\"SCHEDULE DAY 2\", Blank Schedule Type Limits Name input -- will not be validated.",
    "   ** Warning ** ProcessScheduleInput: Schedule:Day:Interval=\"SCHEDULE DAY 3\", Blank Schedule Type Limits Name input -- will not be validated.",
    "   ** Warning ** ProcessScheduleInput: Schedule:Day:Interval=\"SCHEDULE DAY 4\", Blank Schedule Type Limits Name input -- will not be validated.",
    "   ** Warning ** ProcessScheduleInput: Schedule:Day:Interval=\"SCHEDULE DAY 5\", Blank Schedule Type Limits Name input -- will not be validated.",
    "   ** Warning ** ProcessScheduleInput: Schedule:Day:Interval=\"SCHEDULE DAY 6\", Blank Schedule Type Limits Name input -- will not be validated.",
    "   ** Warning ** ProcessScheduleInput: Schedule:Day:Interval=\"SCHEDULE DAY 7\", Blank Schedule Type Limits Name input -- will not be validated.",
    "   ** Warning ** ProcessScheduleInput: Schedule:Day:Interval=\"SCHEDULE DAY 8\", Blank Schedule Type Limits Name input -- will not be validated.",
    "   ** Warning ** ProcessScheduleInput: Schedule:Day:Interval=\"SCHEDULE DAY 9\", Blank Schedule Type Limits Name input -- will not be validated.",
    "   ** Warning ** ProcessScheduleInput: Schedule:Constant=\"ALWAYS OFF DISCRETE\", Blank Schedule Type Limits Name input -- will not be validated.",
    "   ** Warning ** ProcessScheduleInput: Schedule:Constant=\"ALWAYS ON CONTINUOUS\", Blank Schedule Type Limits Name input -- will not be validated.",
    "   ** Warning ** GetHTSurfaceData: Surfaces with interface to Ground found but no \"Ground Temperatures\" were input.",
    "   **   ~~~   ** Found first in surface=SURFACE 25",
    "   **   ~~~   ** Defaults, constant throughout the year of (18.0) will be used.",
    "   ** Warning ** CheckUsedConstructions: There are 6 nominally unused constructions in input.",
    "   **   ~~~   ** For explicit details on each unused construction, use Output:Diagnostics,DisplayExtraWarnings;",
    "   ** Warning ** GetSimpleAirModelInputs: ZoneInfiltration:DesignFlowRate=\"STORY 1 CORE THERMAL ZONE BASELINE MODEL INFILTRATION\", Design Flow Rate Calculation Method specifies Flow per Exterior Surface Area, but Exterior Surface Area = 0.  0 Infiltration will result.",
    "   ** Warning ** GetSimpleAirModelInputs: ZoneInfiltration:DesignFlowRate=\"STORY 2 CORE THERMAL ZONE BASELINE MODEL INFILTRATION\", Design Flow Rate Calculation Method specifies Flow per Exterior Surface Area, but Exterior Surface Area = 0.  0 Infiltration will result.",
    "   ************* Beginning System Sizing Calculations",
    "   ** Warning ** Fan:ZoneExhaust=\"FAN ZONE EXHAUST 1\" has specified 0.0 max air flow rate. It will not be used in the simulation.",
    "   ************* Beginning Plant Sizing Calculations",
    "   ** Warning ** In calculating the design coil UA for Coil:Cooling:Water COIL COOLING WATER 3",
    "   **   ~~~   ** no apparatus dew-point can be found for the initial entering and leaving conditions;",
    "   **   ~~~   ** the coil outlet design conditions will be changed to correct the problem.",
    "   **   ~~~   ** The initial design conditions are: Tair,in = 29.5988",
    "   **   ~~~   **                                    Wair,in = 1.496113E-002",
    "   **   ~~~   **                                    Twater,in = 7.2200",
    "   **   ~~~   **                                    Tair,out = 12.8000",
    "   **   ~~~   **                                    Wair,out = 8.478624E-003",
    "   **   ~~~   ** The revised design conditions are: Tair,out = 12.7997",
    "   **   ~~~   **                                    Wair,out = 8.478742E-003",
    "   ** Severe  ** Plant temperatures are getting far too hot, check controls and relative loads and capacities",
    "   **   ~~~   **  During Warmup, Environment=CHICAGO OHARE INTL AP ANN HTG 99.6% CONDNS DB, at Simulation time=01/21 23:45 - 24:00",
    "   **   ~~~   ** PlantLoop Name (DemandSide)= CHILLED WATER PLANT",
    "   **   ~~~   ** PlantLoop Setpoint Temperature=6.7 {C}",
    "   **   ~~~   ** PlantLoop Inlet Node (SupplySide) does not have a Setpoint.",
    "   **   ~~~   ** PlantLoop Inlet Node (DemandSide) does not have a Setpoint.",
    "   **   ~~~   ** PlantLoop Outlet Node (SupplySide) has a Setpoint.",
    "   **   ~~~   ** PlantLoop Outlet Node (DemandSide) does not have a Setpoint.",
    "   **   ~~~   ** PlantLoop Outlet Node (DemandSide) \"NODE 46\" has temperature=923.5 {C}",
    "   **   ~~~   ** PlantLoop  Inlet Node (DemandSide) \"NODE 45\" has temperature=99.5 {C}",
    "   **   ~~~   ** PlantLoop Minimum Temperature=0.0 {C}",
    "   **   ~~~   ** PlantLoop Maximum Temperature=100.0 {C}",
    "   **   ~~~   ** PlantLoop Flow Request (SupplySide)=0.0 {kg/s}",
    "   **   ~~~   ** PlantLoop Flow Request (DemandSide)=23.2 {kg/s}",
    "   **   ~~~   ** PlantLoop Node (DemandSide) \"NODE 46\" has mass flow rate =23.2 {kg/s}",
    "   **   ~~~   ** PlantLoop PumpHeat (SupplySide)=5493.1 {W}",
    "   **   ~~~   ** PlantLoop PumpHeat (DemandSide)=0.0 {W}",
    "   **   ~~~   ** PlantLoop Cooling Demand=84932083.7 {W}",
    "   **   ~~~   ** PlantLoop Heating Demand=0.0 {W}",
    "   **   ~~~   ** PlantLoop Demand not Dispatched=84263241.3 {W}",
    "   **   ~~~   ** PlantLoop Unmet Demand=-9129520.7 {W}",
    "   **   ~~~   ** PlantLoop Capacity=668842.3 {W}",
    "   **   ~~~   ** PlantLoop Capacity (SupplySide)=668842.3 {W}",
    "   **   ~~~   ** PlantLoop Capacity (DemandSide)=0.0 {W}",
    "   **   ~~~   ** PlantLoop Operation Scheme=CHILLED WATER PLANT OPERATION SCHEMES",
    "   **   ~~~   ** PlantLoop Operation Dispatched Load = 668842.3 {W}",
    "   **   ~~~   ** PlantLoop Operation Dispatched Load (SupplySide)= 668842.3 {W}",
    "   **   ~~~   ** PlantLoop Operation Dispatched Load (DemandSide)= 0.0 {W}",
    "   **   ~~~   ** Branches on the Loop.",
    "   **   ~~~   ** Demand Branches:",
    "   **   ~~~   **   CHILLED WATER PLANT DEMAND INLET BRANCH",
    "   **   ~~~   **     Components on Branch:",
    "   **   ~~~   **       PIPE:ADIABATIC:CHILLED WATER PLANT DEMAND INLET PIPE",
    "   **   ~~~   **   CHILLED WATER PLANT DEMAND BRANCH 1",
    "   **   ~~~   **     Components on Branch:",
    "   **   ~~~   **       COIL:COOLING:WATER:COIL COOLING WATER 1",
    "   **   ~~~   **   CHILLED WATER PLANT DEMAND BRANCH 2",
    "   **   ~~~   **     Components on Branch:",
    "   **   ~~~   **       COIL:COOLING:WATER:COIL COOLING WATER 2",
    "   **   ~~~   **   CHILLED WATER PLANT DEMAND BRANCH 3",
    "   **   ~~~   **     Components on Branch:",
    "   **   ~~~   **       COIL:COOLING:WATER:COIL COOLING WATER 3",
    "   **   ~~~   **   CHILLED WATER PLANT DEMAND BYPASS BRANCH",
    "   **   ~~~   **     Components on Branch:",
    "   **   ~~~   **       PIPE:ADIABATIC:CHILLED WATER PLANT DEMAND BYPASS PIPE",
    "   **   ~~~   **   CHILLED WATER PLANT DEMAND OUTLET BRANCH",
    "   **   ~~~   **     Components on Branch:",
    "   **   ~~~   **       PIPE:ADIABATIC:CHILLED WATER PLANT DEMAND OUTLET PIPE",
    "   **   ~~~   ** Supply Branches:",
    "   **   ~~~   **   CHILLED WATER PLANT SUPPLY INLET BRANCH",
    "   **   ~~~   **     Components on Branch:",
    "   **   ~~~   **       PUMP:VARIABLESPEED:PUMP VARIABLE SPEED 3",
    "   **   ~~~   **   CHILLED WATER PLANT SUPPLY BRANCH 1",
    "   **   ~~~   **     Components on Branch:",
    "   **   ~~~   **       DISTRICTCOOLING:DISTRICT COOLING 1",
    "   **   ~~~   **   CHILLED WATER PLANT SUPPLY BRANCH 2",
    "   **   ~~~   **     Components on Branch:",
    "   **   ~~~   **       PIPE:ADIABATIC:PIPE ADIABATIC 5",
    "   **   ~~~   **   CHILLED WATER PLANT SUPPLY OUTLET BRANCH",
    "   **   ~~~   **     Components on Branch:",
    "   **   ~~~   **       PIPE:ADIABATIC:CHILLED WATER PLANT SUPPLY OUTLET PIPE",
    "   **   ~~~   ** *************************",
    "   **   ~~~   ** Possible things to look for to correct this problem are:",
    "   **   ~~~   **   Capacity, Operation Scheme, Mass flow problems, Pump Heat building up over time.",
    "   **   ~~~   **   Try a shorter runperiod to stop before it fatals and look at",
    "   **   ~~~   **     lots of node time series data to see what is going wrong.",
    "   **   ~~~   **   If this is happening during Warmup, you can use Output:Diagnostics,ReportDuringWarmup;",
    "   **   ~~~   **   This is detected at the loop level, but the typical problems are in the components.",
    "   **  Fatal  ** CheckForRunawayPlantTemps: Simulation terminated because of run away plant temperatures, too hot",
    "   ...Summary of Errors that led to program termination:",
    "   ..... Reference severe error count=1",
    "   ..... Last severe error=Plant temperatures are getting far too hot, check controls and relative loads and capacities",
    "   ************* Warning:  Node connection errors not checked - most system input has not been read (see previous warning).",
    "   ************* Fatal error -- final processing.  Program exited before simulations began.  See previous error messages.",
    "   *************",
    "   ************* ===== Recurring Error Summary =====",
    "   ************* The following recurring error messages occurred.",
    "   *************",
    "   *************  ** Warning ** Plant loop exceeding upper temperature limit, PlantLoop=\"CHILLED WATER PLANT\"",
    "   *************  **   ~~~   **   This error occurred 2 total times;",
    "   *************  **   ~~~   **   during Warmup 2 times;",
    "   *************  **   ~~~   **   during Sizing 0 times.",
    "   *************  **   ~~~   **   Max=923.478468",
    "   *************",
    "   *************",
    "   ************* ===== Final Error Summary =====",
    "   ************* The following error categories occurred.  Consider correcting or noting.",
    "   ************* Nominally Unused Constructions",
    "   ************* ..The nominally unused constructions warning is provided to alert you to potential conditions that can cause",
    "   ************* ..extra time during simulation. Each construction is calculated by the algorithm indicated in the HeatBalanceAlgorithm",
    "   ************* ..object. You may remove the constructions indicated (when you use the DisplayExtraWarnings option).",
    "   *************",
    "   ************* EnergyPlus Warmup Error Summary. During Warmup: 0 Warning; 0 Severe Errors.",
    "   ************* EnergyPlus Sizing Error Summary. During Sizing: 17 Warning; 0 Severe Errors.",
    "   ************* EnergyPlus Terminated--Fatal Error Detected. 20 Warning; 1 Severe Errors; "
  ],
  "seed_file": "in.osm",
  "steps": [
    {
      "arguments": {
      },
      "measure_dir_name": "openstudio_results"
    }
  ],
  "weather_file": "../../weatherdata/USA_IL_Chicago-OHare.Intl.AP.725300_TMY3.epw"
}