{
  "completed_status": "Success",
  "current_step": 1,
  "eplusout_err": "Program Version,EnergyPlus, Version 8.7.0-78a111df4a, IDD_Version 8.7.0\n   ************* Beginning Zone Sizing Calculations\n   ** Warning ** ProcessScheduleInput: Schedule:Day:Interval=\"SCHEDULE DAY 10\", Blank Schedule Type Limits Name input -- will not be validated.\n   ** Warning ** ProcessScheduleInput: Schedule:Day:Interval=\"SCHEDULE DAY 11\", Blank Schedule Type Limits Name input -- will not be validated.\n   ** Warning ** ProcessScheduleInput: Schedule:Day:Interval=\"SCHEDULE DAY 2\", Blank Schedule Type Limits Name input -- will not be validated.\n   ** Warning ** ProcessScheduleInput: Schedule:Day:Interval=\"SCHEDULE DAY 3\", Blank Schedule Type Limits Name input -- will not be validated.\n   ** Warning ** ProcessScheduleInput: Schedule:Day:Interval=\"SCHEDULE DAY 4\", Blank Schedule Type Limits Name input -- will not be validated.\n   ** Warning ** ProcessScheduleInput: Schedule:Day:Interval=\"SCHEDULE DAY 5\", Blank Schedule Type Limits Name input -- will not be validated.\n   ** Warning ** ProcessScheduleInput: Schedule:Day:Interval=\"SCHEDULE DAY 6\", Blank Schedule Type Limits Name input -- will not be validated.\n   ** Warning ** ProcessScheduleInput: Schedule:Day:Interval=\"SCHEDULE DAY 7\", Blank Schedule Type Limits Name input -- will not be validated.\n   ** Warning ** ProcessScheduleInput: Schedule:Day:Interval=\"SCHEDULE DAY 8\", Blank Schedule Type Limits Name input -- will not be validated.\n   ** Warning ** ProcessScheduleInput: Schedule:Day:Interval=\"SCHEDULE DAY 9\", Blank Schedule Type Limits Name input -- will not be validated.\n   ** Warning ** ProcessScheduleInput: Schedule:Constant=\"ALWAYS OFF DISCRETE\", Blank Schedule Type Limits Name input -- will not be validated.\n   ** Warning ** ProcessScheduleInput: Schedule:Constant=\"ALWAYS ON CONTINUOUS\", Blank Schedule Type Limits Name input -- will not be validated.\n   ** Warning ** GetHTSurfaceData: Surfaces with interface to Ground found but no \"Ground Temperatures\" were input.\n   **   ~~~   ** Found first in surface=SURFACE 25\n   **   ~~~   ** Defaults, constant throughout the year of (18.0) will be used.\n   ** Warning ** CheckUsedConstructions: There are 6 nominally unused constructions in input.\n   **   ~~~   ** For explicit details on each unused construction, use Output:Diagnostics,DisplayExtraWarnings;\n   ** Warning ** GetSimpleAirModelInputs: ZoneInfiltration:DesignFlowRate=\"STORY 1 CORE THERMAL ZONE BASELINE MODEL INFILTRATION\", Design Flow Rate Calculation Method specifies Flow per Exterior Surface Area, but Exterior Surface Area = 0.  0 Infiltration will result.\n   ** Warning ** GetSimpleAirModelInputs: ZoneInfiltration:DesignFlowRate=\"STORY 2 CORE THERMAL ZONE BASELINE MODEL INFILTRATION\", Design Flow Rate Calculation Method specifies Flow per Exterior Surface Area, but Exterior Surface Area = 0.  0 Infiltration will result.\n   ************* Beginning System Sizing Calculations\n   ** Warning ** Fan:ZoneExhaust=\"FAN ZONE EXHAUST 1\" has specified 0.0 max air flow rate. It will not be used in the simulation.\n   ************* Beginning Plant Sizing Calculations\n   ** Warning ** In calculating the design coil UA for Coil:Cooling:Water COIL COOLING WATER 3\n   **   ~~~   ** no apparatus dew-point can be found for the initial entering and leaving conditions;\n   **   ~~~   ** the coil outlet design conditions will be changed to correct the problem.\n   **   ~~~   ** The initial design conditions are: Tair,in = 29.5988\n   **   ~~~   **                                    Wair,in = 1.496113E-002\n   **   ~~~   **                                    Twater,in = 7.2200\n   **   ~~~   **                                    Tair,out = 12.8000\n   **   ~~~   **                                    Wair,out = 8.478624E-003\n   **   ~~~   ** The revised design conditions are: Tair,out = 12.7997\n   **   ~~~   **                                    Wair,out = 8.478742E-003\n   ** Warning ** Output:Meter:MeterFileOnly requested for \"Electricity:Facility\" (TimeStep), already on \"Output:Meter\". Will report to both eplusout.eso and eplusout.mtr\n   ************* Testing Individual Branch Integrity\n   ************* All Branches passed integrity testing\n   ************* Testing Individual Supply Air Path Integrity\n   ************* All Supply Air Paths passed integrity testing\n   ************* Testing Individual Return Air Path Integrity\n   ************* All Return Air Paths passed integrity testing\n   ************* No node connection errors were found.\n   ************* Beginning Simulation\n   ** Warning ** SimHVAC: Maximum iterations (20) exceeded for all HVAC loops, at RUN PERIOD 1, 01/01 00:00 - 00:15\n   **   ~~~   ** The solution for one or more of the Air Loop HVAC systems did not appear to converge\n   **   ~~~   ** ...use Output:Diagnostics,DisplayExtraWarnings; to show more details on each max iteration exceeded.\n   ** Warning ** SimHVAC: Maximum iterations (20) exceeded for all HVAC loops, at RUN PERIOD 1, 01/01 00:00 - 00:08\n   **   ~~~   ** The solution for one or more of the Air Loop HVAC systems did not appear to converge\n   ** Warning ** SimHVAC: Maximum iterations (20) exceeded for all HVAC loops, at RUN PERIOD 1, 01/01 00:08 - 00:15\n   **   ~~~   ** The solution for one or more of the Air Loop HVAC systems did not appear to converge\n   ** Warning ** SimHVAC: Maximum iterations (20) exceeded for all HVAC loops, at RUN PERIOD 1, 01/01 00:15 - 00:30\n   **   ~~~   ** The solution for one or more of the Air Loop HVAC systems did not appear to converge\n   ** Warning ** SimHVAC: Maximum iterations (20) exceeded for all HVAC loops, at RUN PERIOD 1, 01/01 00:15 - 00:22\n   **   ~~~   ** The solution for one or more of the Air Loop HVAC systems did not appear to converge\n   ** Warning ** SimHVAC: Maximum iterations (20) exceeded for all HVAC loops, at RUN PERIOD 1, 01/01 00:23 - 00:30\n   **   ~~~   ** The solution for one or more of the Air Loop HVAC systems did not appear to converge\n   ** Warning ** SimHVAC: Maximum iterations (20) exceeded for all HVAC loops, at RUN PERIOD 1, 01/01 00:30 - 00:45\n   **   ~~~   ** The solution for one or more of the Air Loop HVAC systems did not appear to converge\n   ** Warning ** SimHVAC: Maximum iterations (20) exceeded for all HVAC loops, at RUN PERIOD 1, 01/01 00:30 - 00:38\n   **   ~~~   ** The solution for one or more of the Air Loop HVAC systems did not appear to converge\n   ** Warning ** SimHVAC: Maximum iterations (20) exceeded for all HVAC loops, at RUN PERIOD 1, 01/01 00:38 - 00:45\n   **   ~~~   ** The solution for one or more of the Air Loop HVAC systems did not appear to converge\n   ** Warning ** SimHVAC: Maximum iterations (20) exceeded for all HVAC loops, at RUN PERIOD 1, 01/01 00:45 - 01:00\n   **   ~~~   ** The solution for one or more of the Air Loop HVAC systems did not appear to converge\n   ** Warning ** SimHVAC: Maximum iterations (20) exceeded for all HVAC loops, at RUN PERIOD 1, 01/01 00:45 - 00:50\n   **   ~~~   ** The solution for one or more of the Air Loop HVAC systems did not appear to converge\n   ** Warning ** SimHVAC: Maximum iterations (20) exceeded for all HVAC loops, at RUN PERIOD 1, 01/01 00:50 - 00:55\n   **   ~~~   ** The solution for one or more of the Air Loop HVAC systems did not appear to converge\n   ** Warning ** SimHVAC: Maximum iterations (20) exceeded for all HVAC loops, at RUN PERIOD 1, 01/01 00:55 - 01:00\n   **   ~~~   ** The solution for one or more of the Air Loop HVAC systems did not appear to converge\n   ** Warning ** SimHVAC: Maximum iterations (20) exceeded for all HVAC loops, at RUN PERIOD 1, 01/01 01:00 - 01:15\n   **   ~~~   ** The solution for one or more of the Air Loop HVAC systems did not appear to converge\n   ** Warning ** GetSpecificHeatGlycol: Temperature is out of range (too low) for fluid [WATER] specific heat supplied values **\n   **   ~~~   ** ..Called From:UpdateGroundHeatExchanger,Temperature=[-2.84E-003], supplied data range=[0.00,125.00]\n   **   ~~~   **  Environment=RUN PERIOD 1, at Simulation time=02/11 10:45 - 11:00\n   ** Warning ** GetDensityGlycol: Temperature is out of range (too low) for fluid [WATER] density **\n   **   ~~~   ** ..Called From:NodeReportingCalc:NODE 38,Temperature=[-0.36], supplied data range=[0.00,100.00]\n   **   ~~~   **  Environment=RUN PERIOD 1, at Simulation time=02/11 10:50 - 10:55\n   ************* Simulation Error Summary *************\n   ************* There are 2 unused schedules in input.\n   ************* There are 2 unused week schedules in input.\n   ************* There are 12 unused day schedules in input.\n   ************* Use Output:Diagnostics,DisplayUnusedSchedules; to see them.\n   *************\n   ************* ===== Recurring Error Summary =====\n   ************* The following recurring error messages occurred.\n   *************\n   *************  ** Warning ** SimHVAC: Exceeding Maximum iterations for all HVAC loops, during RUN PERIOD 1 continues\n   *************  **   ~~~   **   This error occurred 126185 total times;\n   *************  **   ~~~   **   during Warmup 0 times;\n   *************  **   ~~~   **   during Sizing 0 times.\n   *************\n   *************  ** Warning ** GetSpecificHeatGlycol: Temperature out of range (too low) for fluid [WATER] specific heat **\n   *************  **   ~~~   **   This error occurred 1901389 total times;\n   *************  **   ~~~   **   during Warmup 0 times;\n   *************  **   ~~~   **   during Sizing 0 times.\n   *************  **   ~~~   **   Max=-1.834345E-005 {C}  Min=-4.523365 {C}\n   *************\n   *************  ** Warning ** GetDensityGlycol: Temperature out of range (too low) for fluid [WATER] density **\n   *************  **   ~~~   **   This error occurred 37473 total times;\n   *************  **   ~~~   **   during Warmup 0 times;\n   *************  **   ~~~   **   during Sizing 0 times.\n   *************  **   ~~~   **   Max=-6.975864E-005 {C}  Min=-4.523365 {C}\n   *************\n   *************\n   ************* ===== Final Error Summary =====\n   ************* The following error categories occurred.  Consider correcting or noting.\n   ************* Nominally Unused Constructions\n   ************* ..The nominally unused constructions warning is provided to alert you to potential conditions that can cause\n   ************* ..extra time during simulation. Each construction is calculated by the algorithm indicated in the HeatBalanceAlgorithm\n   ************* ..object. You may remove the constructions indicated (when you use the DisplayExtraWarnings option).\n   *************\n   ************* EnergyPlus Warmup Error Summary. During Warmup: 0 Warning; 0 Severe Errors.\n   ************* EnergyPlus Sizing Error Summary. During Sizing: 17 Warning; 0 Severe Errors.\n   ************* EnergyPlus Completed Successfully-- 2065080 Warning; 0 Severe Errors; ",
  "seed_file": "in.osm",
  "steps": [
    {
      "arguments": {
      },
      "measure_dir_name": "openstudio_results",
      "result": {
        "measure_class_name": "OpenStudioResults",
        "measure_display_name": "OpenStudio Results",
        "measure_name": "openstudio_results",
        "measure_taxonomy": "Reporting.QAQC",
        "measure_type": "ReportingMeasure",
        "measure_uid": "a25386cd-60e4-46bc-8b11-c755f379d916",
        "measure_version_id": "5b8e57e8-830a-43ae-90d4-a41d97698d95",
        "measure_version_modified": "20171219T161835Z",
        "measure_xml_checksum": "557BF06F",
        "stderr": "",
        "stdout": "",
        "step_errors": [

        ],
        "step_final_condition": "Generated report with 21 sections to ./report.html.",
        "step_info": [

        ],
        "step_initial_condition": "Gathering data from EnergyPlus SQL file and OSM model.",
        "step_result": "Success",
        "step_values": [
          {
            "name": "building_summary_section",
            "value": true
          },
          {
            "name": "annual_overview_section",
            "value": true
          },
          {
            "name": "monthly_overview_section",
            "value": true
          },
          {
            "name": "utility_bills_rates_section",
            "value": true
          },
          {
            "name": "envelope_section_section",
            "value": true
          },
          {
            "name": "space_type_breakdown_section",
            "value": true
          },
          {
            "name": "space_type_details_section",
            "value": true
          },
          {
            "name": "interior_lighting_section",
            "value": true
          },
          {
            "name": "plug_loads_section",
            "value": true
          },
          {
            "name": "exterior_light_section",
            "value": true
          },
          {
            "name": "water_use_section",
            "value": true
          },
          {
            "name": "hvac_load_profile",
            "value": true
          },
          {
            "name": "zone_condition_section",
            "value": true
          },
          {
            "name": "zone_summary_section",
            "value": true
          },
          {
            "name": "zone_equipment_detail_section",
            "value": true
          },
          {
            "name": "air_loops_detail_section",
            "value": true
          },
          {
            "name": "plant_loops_detail_section",
            "value": true
          },
          {
            "name": "outdoor_air_section",
            "value": true
          },
          {
            "name": "cost_summary_section",
            "value": true
          },
          {
            "name": "source_energy_section",
            "value": true
          },
          {
            "name": "schedules_overview_section",
            "value": true
          },
          {
            "display_name": "Building 1",
            "name": "building_name",
            "value": "building_name"
          },
          {
            "name": "total_site_energy",
            "units": "kBtu",
            "value": 6289193.110983001
          },
          {
            "name": "net_site_energy",
            "units": "kBtu",
            "value": 6289193.110983001
          },
          {
            "name": "total_building_area",
            "units": "ft^2",
            "value": 161458.65625064584
          },
          {
            "name": "total_site_eui",
            "units": "kBtu/ft^2",
            "value": 38.95234394382521
          },
          {
            "name": "eui",
            "units": "kBtu/ft^2",
            "value": 38.95234394382521
          },
          {
            "name": "unmet_hours_during_heating",
            "units": "hr",
            "value": 6123
          },
          {
            "name": "unmet_hours_during_cooling",
            "units": "hr",
            "value": 2868
          },
          {
            "name": "unmet_hours_during_occupied_heating",
            "units": "hr",
            "value": 2932.5
          },
          {
            "name": "unmet_hours_during_occupied_cooling",
            "units": "hr",
            "value": 2690.5
          },
          {
            "name": "unmet_hours_tolerance_heating",
            "units": "F",
            "value": 0.36
          },
          {
            "name": "unmet_hours_tolerance_cooling",
            "units": "F",
            "value": 0.36
          },
          {
            "name": "end_use_heating",
            "units": "kBtu",
            "value": 1477239.329206727
          },
          {
            "name": "end_use_cooling",
            "units": "kBtu",
            "value": 972924.7958304171
          },
          {
            "name": "end_use_interior_lighting",
            "units": "kBtu",
            "value": 1566921.785130773
          },
          {
            "name": "end_use_exterior_lighting",
            "units": "kBtu",
            "value": 0
          },
          {
            "name": "end_use_interior_equipment",
            "units": "kBtu",
            "value": 1566921.785130773
          },
          {
            "name": "end_use_exterior_equipment",
            "units": "kBtu",
            "value": 0
          },
          {
            "name": "end_use_fans",
            "units": "kBtu",
            "value": 692588.9261553473
          },
          {
            "name": "end_use_pumps",
            "units": "kBtu",
            "value": 12587.011357760852
          },
          {
            "name": "end_use_heat_rejection",
            "units": "kBtu",
            "value": 0
          },
          {
            "name": "end_use_humidification",
            "units": "kBtu",
            "value": 0
          },
          {
            "name": "end_use_heat_recovery",
            "units": "kBtu",
            "value": 0
          },
          {
            "name": "end_use_water_systems",
            "units": "kBtu",
            "value": 0
          },
          {
            "name": "end_use_refrigeration",
            "units": "kBtu",
            "value": 0
          },
          {
            "name": "end_use_generators",
            "units": "kBtu",
            "value": 0
          },
          {
            "name": "fuel_electricity",
            "units": "kBtu",
            "value": 4299080.459803535
          },
          {
            "name": "fuel_natural_gas",
            "units": "kBtu",
            "value": 984706.1626359117
          },
          {
            "name": "fuel_additional_fuel",
            "units": "kBtu",
            "value": 0
          },
          {
            "name": "fuel_district_cooling",
            "units": "kBtu",
            "value": 958745.4517105299
          },
          {
            "name": "fuel_district_heating",
            "units": "kBtu",
            "value": 46670.515004227746
          },
          {
            "name": "end_use_electricity_heating",
            "units": "kWh",
            "value": 130669.44444444445
          },
          {
            "name": "end_use_electricity_cooling",
            "units": "kWh",
            "value": 4155.555555555556
          },
          {
            "name": "end_use_electricity_interior_lighting",
            "units": "kWh",
            "value": 459219.44444444444
          },
          {
            "name": "end_use_electricity_exterior_lighting",
            "units": "kWh",
            "value": 0
          },
          {
            "name": "end_use_electricity_interior_equipment",
            "units": "kWh",
            "value": 459219.44444444444
          },
          {
            "name": "end_use_electricity_exterior_equipment",
            "units": "kWh",
            "value": 0
          },
          {
            "name": "end_use_electricity_fans",
            "units": "kWh",
            "value": 202977.77777777778
          },
          {
            "name": "end_use_electricity_pumps",
            "units": "kWh",
            "value": 3688.888888888889
          },
          {
            "name": "end_use_electricity_heat_rejection",
            "units": "kWh",
            "value": 0
          },
          {
            "name": "end_use_electricity_humidification",
            "units": "kWh",
            "value": 0
          },
          {
            "name": "end_use_electricity_heat_recovery",
            "units": "kWh",
            "value": 0
          },
          {
            "name": "end_use_electricity_water_systems",
            "units": "kWh",
            "value": 0
          },
          {
            "name": "end_use_electricity_refrigeration",
            "units": "kWh",
            "value": 0
          },
          {
            "name": "end_use_electricity_generators",
            "units": "kWh",
            "value": 0
          },
          {
            "name": "end_use_natural_gas_heating",
            "units": "therms",
            "value": 9848.9616
          },
          {
            "name": "end_use_natural_gas_cooling",
            "units": "therms",
            "value": 0
          },
          {
            "name": "end_use_natural_gas_interior_lighting",
            "units": "therms",
            "value": 0
          },
          {
            "name": "end_use_natural_gas_exterior_lighting",
            "units": "therms",
            "value": 0
          },
          {
            "name": "end_use_natural_gas_interior_equipment",
            "units": "therms",
            "value": 0
          },
          {
            "name": "end_use_natural_gas_exterior_equipment",
            "units": "therms",
            "value": 0
          },
          {
            "name": "end_use_natural_gas_fans",
            "units": "therms",
            "value": 0
          },
          {
            "name": "end_use_natural_gas_pumps",
            "units": "therms",
            "value": 0
          },
          {
            "name": "end_use_natural_gas_heat_rejection",
            "units": "therms",
            "value": 0
          },
          {
            "name": "end_use_natural_gas_humidification",
            "units": "therms",
            "value": 0
          },
          {
            "name": "end_use_natural_gas_heat_recovery",
            "units": "therms",
            "value": 0
          },
          {
            "name": "end_use_natural_gas_water_systems",
            "units": "therms",
            "value": 0
          },
          {
            "name": "end_use_natural_gas_refrigeration",
            "units": "therms",
            "value": 0
          },
          {
            "name": "end_use_natural_gas_generators",
            "units": "therms",
            "value": 0
          },
          {
            "name": "electricity_heating_ip",
            "units": "kWh",
            "value": 130670.6388888889
          },
          {
            "name": "electricity_cooling_ip",
            "units": "kWh",
            "value": 4156.414474727778
          },
          {
            "name": "electricity_interior_lighting_ip",
            "units": "kWh",
            "value": 459220.8333333333
          },
          {
            "name": "electricity_exterior_lighting_ip",
            "units": "kWh",
            "value": 0
          },
          {
            "name": "electricity_interior_equipment_ip",
            "units": "kWh",
            "value": 459220.8333333333
          },
          {
            "name": "electricity_exterior_equipment_ip",
            "units": "kWh",
            "value": 0
          },
          {
            "name": "electricity_fans_ip",
            "units": "kWh",
            "value": 202976.75
          },
          {
            "name": "electricity_pumps_ip",
            "units": "kWh",
            "value": 3689.6991666666668
          },
          {
            "name": "electricity_heat_rejection_ip",
            "units": "kWh",
            "value": 0.0020264638888888888
          },
          {
            "name": "electricity_humidification_ip",
            "units": "kWh",
            "value": 0
          },
          {
            "name": "electricity_heat_recovery_ip",
            "units": "kWh",
            "value": 0
          },
          {
            "name": "electricity_water_systems_ip",
            "units": "kWh",
            "value": 0
          },
          {
            "name": "electricity_refrigeration_ip",
            "units": "kWh",
            "value": 0
          },
          {
            "name": "electricity_generators_ip",
            "units": "kWh",
            "value": 0
          },
          {
            "name": "electricity_ip",
            "units": "kWh",
            "value": 1259935.1712234137
          },
          {
            "name": "natural_gas_heating_ip",
            "units": "MBtu",
            "value": 984.7072336692574
          },
          {
            "name": "natural_gas_cooling_ip",
            "units": "MBtu",
            "value": 0
          },
          {
            "name": "natural_gas_interior_lighting_ip",
            "units": "MBtu",
            "value": 0
          },
          {
            "name": "natural_gas_exterior_lighting_ip",
            "units": "MBtu",
            "value": 0
          },
          {
            "name": "natural_gas_interior_equipment_ip",
            "units": "MBtu",
            "value": 0
          },
          {
            "name": "natural_gas_exterior_equipment_ip",
            "units": "MBtu",
            "value": 0
          },
          {
            "name": "natural_gas_fans_ip",
            "units": "MBtu",
            "value": 0
          },
          {
            "name": "natural_gas_pumps_ip",
            "units": "MBtu",
            "value": 0
          },
          {
            "name": "natural_gas_heat_rejection_ip",
            "units": "MBtu",
            "value": 0
          },
          {
            "name": "natural_gas_humidification_ip",
            "units": "MBtu",
            "value": 0
          },
          {
            "name": "natural_gas_heat_recovery_ip",
            "units": "MBtu",
            "value": 0
          },
          {
            "name": "natural_gas_water_systems_ip",
            "units": "MBtu",
            "value": 0
          },
          {
            "name": "natural_gas_refrigeration_ip",
            "units": "MBtu",
            "value": 0
          },
          {
            "name": "natural_gas_generators_ip",
            "units": "MBtu",
            "value": 0
          },
          {
            "name": "natural_gas_ip",
            "units": "MBtu",
            "value": 984.7072336692574
          },
          {
            "name": "additional_fuel_heating_ip",
            "units": "MBtu",
            "value": 0
          },
          {
            "name": "additional_fuel_cooling_ip",
            "units": "MBtu",
            "value": 0
          },
          {
            "name": "additional_fuel_interior_lighting_ip",
            "units": "MBtu",
            "value": 0
          },
          {
            "name": "additional_fuel_exterior_lighting_ip",
            "units": "MBtu",
            "value": 0
          },
          {
            "name": "additional_fuel_interior_equipment_ip",
            "units": "MBtu",
            "value": 0
          },
          {
            "name": "additional_fuel_exterior_equipment_ip",
            "units": "MBtu",
            "value": 0
          },
          {
            "name": "additional_fuel_fans_ip",
            "units": "MBtu",
            "value": 0
          },
          {
            "name": "additional_fuel_pumps_ip",
            "units": "MBtu",
            "value": 0
          },
          {
            "name": "additional_fuel_heat_rejection_ip",
            "units": "MBtu",
            "value": 0
          },
          {
            "name": "additional_fuel_humidification_ip",
            "units": "MBtu",
            "value": 0
          },
          {
            "name": "additional_fuel_heat_recovery_ip",
            "units": "MBtu",
            "value": 0
          },
          {
            "name": "additional_fuel_water_systems_ip",
            "units": "MBtu",
            "value": 0
          },
          {
            "name": "additional_fuel_refrigeration_ip",
            "units": "MBtu",
            "value": 0
          },
          {
            "name": "additional_fuel_generators_ip",
            "units": "MBtu",
            "value": 0
          },
          {
            "name": "additional_fuel_ip",
            "units": "MBtu",
            "value": 0
          },
          {
            "name": "district_cooling_heating_ip",
            "units": "MBtu",
            "value": 0
          },
          {
            "name": "district_cooling_cooling_ip",
            "units": "MBtu",
            "value": 958.7449304111136
          },
          {
            "name": "district_cooling_interior_lighting_ip",
            "units": "MBtu",
            "value": 0
          },
          {
            "name": "district_cooling_exterior_lighting_ip",
            "units": "MBtu",
            "value": 0
          },
          {
            "name": "district_cooling_interior_equipment_ip",
            "units": "MBtu",
            "value": 0
          },
          {
            "name": "district_cooling_exterior_equipment_ip",
            "units": "MBtu",
            "value": 0
          },
          {
            "name": "district_cooling_fans_ip",
            "units": "MBtu",
            "value": 0
          },
          {
            "name": "district_cooling_pumps_ip",
            "units": "MBtu",
            "value": 0
          },
          {
            "name": "district_cooling_heat_rejection_ip",
            "units": "MBtu",
            "value": 0
          },
          {
            "name": "district_cooling_humidification_ip",
            "units": "MBtu",
            "value": 0
          },
          {
            "name": "district_cooling_heat_recovery_ip",
            "units": "MBtu",
            "value": 0
          },
          {
            "name": "district_cooling_water_systems_ip",
            "units": "MBtu",
            "value": 0
          },
          {
            "name": "district_cooling_refrigeration_ip",
            "units": "MBtu",
            "value": 0
          },
          {
            "name": "district_cooling_generators_ip",
            "units": "MBtu",
            "value": 0
          },
          {
            "name": "district_cooling_ip",
            "units": "MBtu",
            "value": 958.7449304111136
          },
          {
            "name": "district_heating_heating_ip",
            "units": "MBtu",
            "value": 46.6660460106685
          },
          {
            "name": "district_heating_cooling_ip",
            "units": "MBtu",
            "value": 0
          },
          {
            "name": "district_heating_interior_lighting_ip",
            "units": "MBtu",
            "value": 0
          },
          {
            "name": "district_heating_exterior_lighting_ip",
            "units": "MBtu",
            "value": 0
          },
          {
            "name": "district_heating_interior_equipment_ip",
            "units": "MBtu",
            "value": 0
          },
          {
            "name": "district_heating_exterior_equipment_ip",
            "units": "MBtu",
            "value": 0
          },
          {
            "name": "district_heating_fans_ip",
            "units": "MBtu",
            "value": 0
          },
          {
            "name": "district_heating_pumps_ip",
            "units": "MBtu",
            "value": 0
          },
          {
            "name": "district_heating_heat_rejection_ip",
            "units": "MBtu",
            "value": 0
          },
          {
            "name": "district_heating_humidification_ip",
            "units": "MBtu",
            "value": 0
          },
          {
            "name": "district_heating_heat_recovery_ip",
            "units": "MBtu",
            "value": 0
          },
          {
            "name": "district_heating_water_systems_ip",
            "units": "MBtu",
            "value": 0
          },
          {
            "name": "district_heating_refrigeration_ip",
            "units": "MBtu",
            "value": 0
          },
          {
            "name": "district_heating_generators_ip",
            "units": "MBtu",
            "value": 0
          },
          {
            "name": "district_heating_ip",
            "units": "MBtu",
            "value": 46.6660460106685
          },
          {
            "name": "water_heating_ip",
            "units": "MBtu",
            "value": 0
          },
          {
            "name": "water_cooling_ip",
            "units": "MBtu",
            "value": 0
          },
          {
            "name": "water_interior_lighting_ip",
            "units": "MBtu",
            "value": 0
          },
          {
            "name": "water_exterior_lighting_ip",
            "units": "MBtu",
            "value": 0
          },
          {
            "name": "water_interior_equipment_ip",
            "units": "MBtu",
            "value": 0
          },
          {
            "name": "water_exterior_equipment_ip",
            "units": "MBtu",
            "value": 0
          },
          {
            "name": "water_fans_ip",
            "units": "MBtu",
            "value": 0
          },
          {
            "name": "water_pumps_ip",
            "units": "MBtu",
            "value": 0
          },
          {
            "name": "water_heat_rejection_ip",
            "units": "MBtu",
            "value": 0
          },
          {
            "name": "water_humidification_ip",
            "units": "MBtu",
            "value": 0
          },
          {
            "name": "water_heat_recovery_ip",
            "units": "MBtu",
            "value": 0
          },
          {
            "name": "water_water_systems_ip",
            "units": "MBtu",
            "value": 0
          },
          {
            "name": "water_refrigeration_ip",
            "units": "MBtu",
            "value": 0
          },
          {
            "name": "water_generators_ip",
            "units": "MBtu",
            "value": 0
          },
          {
            "name": "water_ip",
            "units": "MBtu",
            "value": 0
          },
          {
            "name": "ashrae_189_1_2009_ext_roof_iead_climate_zone_2_5",
            "units": "ft^2",
            "value": 53819.55208354861
          },
          {
            "name": "ashrae_189_1_2009_ext_wall_steel_frame_climate_zone_4_8",
            "units": "ft^2",
            "value": 23250.046500093013
          },
          {
            "name": "ashrae_189_1_2009_ext_window_climate_zone_4_5",
            "units": "ft^2",
            "value": 15500.031000061985
          },
          {
            "name": "gross_window_wall_ratio",
            "units": "%",
            "value": 40
          },
          {
            "name": "gross_window_wall_ratio_conditioned",
            "units": "%",
            "value": 40
          },
          {
            "name": "skylight_roof_ratio",
            "units": "%",
            "value": 0
          },
          {
            "name": "space_type_baseline_model_space_type",
            "units": "ft^2",
            "value": 161458.65625064584
          },
          {
            "name": "exterior_lighting_total_power",
            "units": "W",
            "value": 0
          },
          {
            "name": "exterior_lighting_total_consumption",
            "units": "kWh",
            "value": 1843180.5555555557
          },
          {
            "name": "inflation_approach",
            "value": "Constant Dollar"
          },
          {
            "name": "analysis_length",
            "units": "yrs",
            "value": 25
          },
          {
            "name": "annual_peak_electric_demand",
            "units": "kW",
            "value": 338.59861
          },
          {
            "name": "first_year_capital_cost",
            "units": "$",
            "value": 0
          },
          {
            "name": "annual_utility_cost",
            "units": "$",
            "value": 0
          },
          {
            "name": "total_lifecycle_cost",
            "units": "$",
            "value": 0
          }
        ],
        "step_warnings": [

        ]
      }
    }
  ],
  "weather_file": "../../weatherdata/USA_IL_Chicago-OHare.Intl.AP.725300_TMY3.epw"
}