{
  "completed_status": "Success",
  "current_step": 1,
  "eplusout_err": "Program Version,EnergyPlus, Version 8.8.0-d5f2442b35, IDD_Version 8.8.0\n   ************* Beginning Zone Sizing Calculations\n   ** Warning ** ProcessScheduleInput: Schedule:Day:Interval=\"SCHEDULE DAY 10\", Blank Schedule Type Limits Name input -- will not be validated.\n   ** Warning ** ProcessScheduleInput: Schedule:Day:Interval=\"SCHEDULE DAY 11\", Blank Schedule Type Limits Name input -- will not be validated.\n   ** Warning ** ProcessScheduleInput: Schedule:Day:Interval=\"SCHEDULE DAY 2\", Blank Schedule Type Limits Name input -- will not be validated.\n   ** Warning ** ProcessScheduleInput: Schedule:Day:Interval=\"SCHEDULE DAY 3\", Blank Schedule Type Limits Name input -- will not be validated.\n   ** Warning ** ProcessScheduleInput: Schedule:Day:Interval=\"SCHEDULE DAY 4\", Blank Schedule Type Limits Name input -- will not be validated.\n   ** Warning ** ProcessScheduleInput: Schedule:Day:Interval=\"SCHEDULE DAY 5\", Blank Schedule Type Limits Name input -- will not be validated.\n   ** Warning ** ProcessScheduleInput: Schedule:Day:Interval=\"SCHEDULE DAY 6\", Blank Schedule Type Limits Name input -- will not be validated.\n   ** Warning ** ProcessScheduleInput: Schedule:Day:Interval=\"SCHEDULE DAY 7\", Blank Schedule Type Limits Name input -- will not be validated.\n   ** Warning ** ProcessScheduleInput: Schedule:Day:Interval=\"SCHEDULE DAY 8\", Blank Schedule Type Limits Name input -- will not be validated.\n   ** Warning ** ProcessScheduleInput: Schedule:Day:Interval=\"SCHEDULE DAY 9\", Blank Schedule Type Limits Name input -- will not be validated.\n   ** Warning ** ProcessScheduleInput: Schedule:Constant=\"ALWAYS ON CONTINUOUS\", Blank Schedule Type Limits Name input -- will not be validated.\n   ** Warning ** GetHTSurfaceData: Surfaces with interface to Ground found but no \"Ground Temperatures\" were input.\n   **   ~~~   ** Found first in surface=SURFACE 25\n   **   ~~~   ** Defaults, constant throughout the year of (18.0) will be used.\n   ** Warning ** CheckUsedConstructions: There are 6 nominally unused constructions in input.\n   **   ~~~   ** For explicit details on each unused construction, use Output:Diagnostics,DisplayExtraWarnings;\n   ** Warning ** GetSimpleAirModelInputs: ZoneInfiltration:DesignFlowRate=\"STORY 1 CORE THERMAL ZONE BASELINE MODEL INFILTRATION\", Design Flow Rate Calculation Method specifies Flow per Exterior Surface Area, but Exterior Surface Area = 0.  0 Infiltration will result.\n   ** Warning ** GetSimpleAirModelInputs: ZoneInfiltration:DesignFlowRate=\"STORY 2 CORE THERMAL ZONE BASELINE MODEL INFILTRATION\", Design Flow Rate Calculation Method specifies Flow per Exterior Surface Area, but Exterior Surface Area = 0.  0 Infiltration will result.\n   ************* Beginning Plant Sizing Calculations\n   ** Warning ** Output:Meter:MeterFileOnly requested for \"Electricity:Facility\" (TimeStep), already on \"Output:Meter\". Will report to both eplusout.eso and eplusout.mtr\n   ************* Testing Individual Branch Integrity\n   ************* All Branches passed integrity testing\n   ************* Testing Individual Supply Air Path Integrity\n   ************* All Supply Air Paths passed integrity testing\n   ************* Testing Individual Return Air Path Integrity\n   ************* All Return Air Paths passed integrity testing\n   ************* No node connection errors were found.\n   ************* Beginning Simulation\n   ** Warning ** Processing Monthly Tabular Reports: Variable names not valid for this simulation\n   **   ~~~   ** ...use Output:Diagnostics,DisplayExtraWarnings; to show more details on individual variables.\n   ** Warning ** ControlCompOutput: Maximum iterations exceeded for ZoneHVAC:Baseboard:RadiantConvective:Water = ZONE HVAC BASEBOARD RADIANT CONVECTIVE WATER 1\n   **   ~~~   ** ... Load met       = 732.28620 W.\n   **   ~~~   ** ... Load requested = 735.76049 W.\n   **   ~~~   ** ... Error          = 0.47220375 %.\n   **   ~~~   ** ... Tolerance      = 0.10000000 %.\n   **   ~~~   ** ... Error          = (Load met - Load requested) / MAXIMUM(Load requested, 100)\n   **   ~~~   ** ... Actuated Node Mass Flow Rate =1.591650527E-002 kg/s\n   **   ~~~   **  Environment=RUN PERIOD 1, at Simulation time=04/21 22:00 - 22:15\n   ** Warning ** ControlCompOutput: Maximum iterations exceeded for ZoneHVAC:Baseboard:RadiantConvective:Water = ZONE HVAC BASEBOARD RADIANT CONVECTIVE WATER 1\n   **   ~~~   ** ... Load met       = 732.76525 W.\n   **   ~~~   ** ... Load requested = 735.76049 W.\n   **   ~~~   ** ... Error          = 0.40709414 %.\n   **   ~~~   ** ... Tolerance      = 0.10000000 %.\n   **   ~~~   ** ... Error          = (Load met - Load requested) / MAXIMUM(Load requested, 100)\n   **   ~~~   ** ... Actuated Node Mass Flow Rate =1.591650527E-002 kg/s\n   **   ~~~   **  Environment=RUN PERIOD 1, at Simulation time=04/21 22:00 - 22:15\n   ** Warning ** ControlCompOutput: Maximum iterations exceeded for ZoneHVAC:Baseboard:RadiantConvective:Water = ZONE HVAC BASEBOARD RADIANT CONVECTIVE WATER 1\n   **   ~~~   ** ... Load met       = 187.35594 W.\n   **   ~~~   ** ... Load requested = 189.41101 W.\n   **   ~~~   ** ... Error          = 1.08497826 %.\n   **   ~~~   ** ... Tolerance      = 0.10000000 %.\n   **   ~~~   ** ... Error          = (Load met - Load requested) / MAXIMUM(Load requested, 100)\n   **   ~~~   ** ... Actuated Node Mass Flow Rate =3.979035242E-003 kg/s\n   **   ~~~   **  Environment=RUN PERIOD 1, at Simulation time=04/23 07:30 - 07:34\n   ** Warning ** ControlCompOutput: Maximum iterations exceeded for ZoneHVAC:Baseboard:RadiantConvective:Water = ZONE HVAC BASEBOARD RADIANT CONVECTIVE WATER 1\n   **   ~~~   ** ... Load met       = 187.29083 W.\n   **   ~~~   ** ... Load requested = 189.41101 W.\n   **   ~~~   ** ... Error          = 1.11935462 %.\n   **   ~~~   ** ... Tolerance      = 0.10000000 %.\n   **   ~~~   ** ... Error          = (Load met - Load requested) / MAXIMUM(Load requested, 100)\n   **   ~~~   ** ... Actuated Node Mass Flow Rate =3.979035242E-003 kg/s\n   **   ~~~   **  Environment=RUN PERIOD 1, at Simulation time=04/23 07:30 - 07:34\n   ** Warning ** ControlCompOutput: Maximum iterations exceeded for ZoneHVAC:Baseboard:RadiantConvective:Water = ZONE HVAC BASEBOARD RADIANT CONVECTIVE WATER 1\n   **   ~~~   ** ... Load met       = 187.53275 W.\n   **   ~~~   ** ... Load requested = 190.96738 W.\n   **   ~~~   ** ... Error          = 1.79854631 %.\n   **   ~~~   ** ... Tolerance      = 0.10000000 %.\n   **   ~~~   ** ... Error          = (Load met - Load requested) / MAXIMUM(Load requested, 100)\n   **   ~~~   ** ... Actuated Node Mass Flow Rate =3.979035242E-003 kg/s\n   **   ~~~   **  Environment=RUN PERIOD 1, at Simulation time=04/23 07:41 - 07:45\n   ** Warning ** ControlCompOutput: Maximum iterations exceeded for ZoneHVAC:Baseboard:RadiantConvective:Water = ZONE HVAC BASEBOARD RADIANT CONVECTIVE WATER 1\n   **   ~~~   ** ... Load met       = 187.53572 W.\n   **   ~~~   ** ... Load requested = 190.96738 W.\n   **   ~~~   ** ... Error          = 1.79699158 %.\n   **   ~~~   ** ... Tolerance      = 0.10000000 %.\n   **   ~~~   ** ... Error          = (Load met - Load requested) / MAXIMUM(Load requested, 100)\n   **   ~~~   ** ... Actuated Node Mass Flow Rate =3.979035242E-003 kg/s\n   **   ~~~   **  Environment=RUN PERIOD 1, at Simulation time=04/23 07:41 - 07:45\n   ** Warning ** ControlCompOutput: Maximum iterations exceeded for ZoneHVAC:Baseboard:RadiantConvective:Water = ZONE HVAC BASEBOARD RADIANT CONVECTIVE WATER 1\n   **   ~~~   ** ... Load met       = 2982.99522 W.\n   **   ~~~   ** ... Load requested = 2990.32673 W.\n   **   ~~~   ** ... Error          = 0.24517445 %.\n   **   ~~~   ** ... Tolerance      = 0.10000000 %.\n   **   ~~~   ** ... Error          = (Load met - Load requested) / MAXIMUM(Load requested, 100)\n   **   ~~~   ** ... Actuated Node Mass Flow Rate =6.366638539E-002 kg/s\n   **   ~~~   **  Environment=RUN PERIOD 1, at Simulation time=04/29 07:30 - 07:45\n   ** Warning ** ControlCompOutput: Maximum iterations exceeded for ZoneHVAC:Baseboard:RadiantConvective:Water = ZONE HVAC BASEBOARD RADIANT CONVECTIVE WATER 1\n   **   ~~~   ** ... Load met       = 2983.26280 W.\n   **   ~~~   ** ... Load requested = 2990.32673 W.\n   **   ~~~   ** ... Error          = 0.23622626 %.\n   **   ~~~   ** ... Tolerance      = 0.10000000 %.\n   **   ~~~   ** ... Error          = (Load met - Load requested) / MAXIMUM(Load requested, 100)\n   **   ~~~   ** ... Actuated Node Mass Flow Rate =6.366638539E-002 kg/s\n   **   ~~~   **  Environment=RUN PERIOD 1, at Simulation time=04/29 07:30 - 07:45\n   ** Warning ** ControlCompOutput: Maximum iterations exceeded for ZoneHVAC:Baseboard:RadiantConvective:Water = ZONE HVAC BASEBOARD RADIANT CONVECTIVE WATER 1\n   **   ~~~   ** ... Load met       = 731.38095 W.\n   **   ~~~   ** ... Load requested = 734.72103 W.\n   **   ~~~   ** ... Error          = 0.45460494 %.\n   **   ~~~   ** ... Tolerance      = 0.10000000 %.\n   **   ~~~   ** ... Error          = (Load met - Load requested) / MAXIMUM(Load requested, 100)\n   **   ~~~   ** ... Actuated Node Mass Flow Rate =1.591650527E-002 kg/s\n   **   ~~~   **  Environment=RUN PERIOD 1, at Simulation time=05/06 06:03 - 06:05\n   ** Warning ** ControlCompOutput: Maximum iterations exceeded for ZoneHVAC:Baseboard:RadiantConvective:Water = ZONE HVAC BASEBOARD RADIANT CONVECTIVE WATER 1\n   **   ~~~   ** ... Load met       = 731.34879 W.\n   **   ~~~   ** ... Load requested = 734.72103 W.\n   **   ~~~   ** ... Error          = 0.45898294 %.\n   **   ~~~   ** ... Tolerance      = 0.10000000 %.\n   **   ~~~   ** ... Error          = (Load met - Load requested) / MAXIMUM(Load requested, 100)\n   **   ~~~   ** ... Actuated Node Mass Flow Rate =1.591650527E-002 kg/s\n   **   ~~~   **  Environment=RUN PERIOD 1, at Simulation time=05/06 06:03 - 06:05\n   ** Warning ** ControlCompOutput: Maximum iterations exceeded for ZoneHVAC:Baseboard:RadiantConvective:Water = ZONE HVAC BASEBOARD RADIANT CONVECTIVE WATER 1\n   **   ~~~   ** ... Load met       = 731.80205 W.\n   **   ~~~   ** ... Load requested = 733.99598 W.\n   **   ~~~   ** ... Error          = 0.29890127 %.\n   **   ~~~   ** ... Tolerance      = 0.10000000 %.\n   **   ~~~   ** ... Error          = (Load met - Load requested) / MAXIMUM(Load requested, 100)\n   **   ~~~   ** ... Actuated Node Mass Flow Rate =1.591650527E-002 kg/s\n   **   ~~~   **  Environment=RUN PERIOD 1, at Simulation time=05/06 06:12 - 06:15\n   ** Warning ** ControlCompOutput: Maximum iterations exceeded for ZoneHVAC:Baseboard:RadiantConvective:Water = ZONE HVAC BASEBOARD RADIANT CONVECTIVE WATER 1\n   **   ~~~   ** ... Load met       = 731.80182 W.\n   **   ~~~   ** ... Load requested = 733.99598 W.\n   **   ~~~   ** ... Error          = 0.29893333 %.\n   **   ~~~   ** ... Tolerance      = 0.10000000 %.\n   **   ~~~   ** ... Error          = (Load met - Load requested) / MAXIMUM(Load requested, 100)\n   **   ~~~   ** ... Actuated Node Mass Flow Rate =1.591650527E-002 kg/s\n   **   ~~~   **  Environment=RUN PERIOD 1, at Simulation time=05/06 06:12 - 06:15\n   ** Warning ** ControlCompOutput: Maximum iterations exceeded for ZoneHVAC:Baseboard:RadiantConvective:Water = ZONE HVAC BASEBOARD RADIANT CONVECTIVE WATER 1\n   **   ~~~   ** ... Load met       = 192.09175 W.\n   **   ~~~   ** ... Load requested = 194.40041 W.\n   **   ~~~   ** ... Error          = 1.18757712 %.\n   **   ~~~   ** ... Tolerance      = 0.10000000 %.\n   **   ~~~   ** ... Error          = (Load met - Load requested) / MAXIMUM(Load requested, 100)\n   **   ~~~   ** ... Actuated Node Mass Flow Rate =3.979035242E-003 kg/s\n   **   ~~~   **  Environment=RUN PERIOD 1, at Simulation time=07/28 00:52 - 00:53\n   ** Warning ** ControlCompOutput: Maximum iterations exceeded for ZoneHVAC:Baseboard:RadiantConvective:Water = ZONE HVAC BASEBOARD RADIANT CONVECTIVE WATER 1\n   **   ~~~   ** ... Load met       = 192.09175 W.\n   **   ~~~   ** ... Load requested = 194.40041 W.\n   **   ~~~   ** ... Error          = 1.18757712 %.\n   **   ~~~   ** ... Tolerance      = 0.10000000 %.\n   **   ~~~   ** ... Error          = (Load met - Load requested) / MAXIMUM(Load requested, 100)\n   **   ~~~   ** ... Actuated Node Mass Flow Rate =3.979035242E-003 kg/s\n   **   ~~~   **  Environment=RUN PERIOD 1, at Simulation time=07/28 00:52 - 00:53\n   ** Warning ** ControlCompOutput: Maximum iterations exceeded for ZoneHVAC:Baseboard:RadiantConvective:Water = ZONE HVAC BASEBOARD RADIANT CONVECTIVE WATER 1\n   **   ~~~   ** ... Load met       = 374.30577 W.\n   **   ~~~   ** ... Load requested = 376.48152 W.\n   **   ~~~   ** ... Error          = 0.57791792 %.\n   **   ~~~   ** ... Tolerance      = 0.10000000 %.\n   **   ~~~   ** ... Error          = (Load met - Load requested) / MAXIMUM(Load requested, 100)\n   **   ~~~   ** ... Actuated Node Mass Flow Rate =7.958191918E-003 kg/s\n   **   ~~~   **  Environment=RUN PERIOD 1, at Simulation time=08/10 07:45 - 07:50\n   ** Warning ** ControlCompOutput: Maximum iterations exceeded for ZoneHVAC:Baseboard:RadiantConvective:Water = ZONE HVAC BASEBOARD RADIANT CONVECTIVE WATER 1\n   **   ~~~   ** ... Load met       = 374.30461 W.\n   **   ~~~   ** ... Load requested = 376.48152 W.\n   **   ~~~   ** ... Error          = 0.57822605 %.\n   **   ~~~   ** ... Tolerance      = 0.10000000 %.\n   **   ~~~   ** ... Error          = (Load met - Load requested) / MAXIMUM(Load requested, 100)\n   **   ~~~   ** ... Actuated Node Mass Flow Rate =7.958191918E-003 kg/s\n   **   ~~~   **  Environment=RUN PERIOD 1, at Simulation time=08/10 07:45 - 07:50\n   ** Warning ** ControlCompOutput: Maximum iterations exceeded for ZoneHVAC:Baseboard:RadiantConvective:Water = ZONE HVAC BASEBOARD RADIANT CONVECTIVE WATER 1\n   **   ~~~   ** ... Load met       = 9.44809 W.\n   **   ~~~   ** ... Load requested = 10.73998 W.\n   **   ~~~   ** ... Error          = 1.29189398 %.\n   **   ~~~   ** ... Tolerance      = 0.10000000 %.\n   **   ~~~   ** ... Error          = (Load met - Load requested) / MAXIMUM(Load requested, 100)\n   **   ~~~   ** ... Actuated Node Mass Flow Rate =4.972731503E-004 kg/s\n   **   ~~~   **  Environment=RUN PERIOD 1, at Simulation time=10/05 21:45 - 22:00\n   ** Warning ** ControlCompOutput: Maximum iterations exceeded for ZoneHVAC:Baseboard:RadiantConvective:Water = ZONE HVAC BASEBOARD RADIANT CONVECTIVE WATER 1\n   **   ~~~   ** ... Load met       = 1401.41018 W.\n   **   ~~~   ** ... Load requested = 1399.88753 W.\n   **   ~~~   ** ... Error          = 0.10876903 %.\n   **   ~~~   ** ... Tolerance      = 0.10000000 %.\n   **   ~~~   ** ... Error          = (Load met - Load requested) / MAXIMUM(Load requested, 100)\n   **   ~~~   ** ... Actuated Node Mass Flow Rate =2.984379651E-002 kg/s\n   **   ~~~   **  Environment=RUN PERIOD 1, at Simulation time=10/28 07:56 - 08:00\n   ** Warning ** ControlCompOutput: Maximum iterations exceeded for ZoneHVAC:Baseboard:RadiantConvective:Water = ZONE HVAC BASEBOARD RADIANT CONVECTIVE WATER 1\n   **   ~~~   ** ... Load met       = 1401.41273 W.\n   **   ~~~   ** ... Load requested = 1399.88753 W.\n   **   ~~~   ** ... Error          = 0.10895121 %.\n   **   ~~~   ** ... Tolerance      = 0.10000000 %.\n   **   ~~~   ** ... Error          = (Load met - Load requested) / MAXIMUM(Load requested, 100)\n   **   ~~~   ** ... Actuated Node Mass Flow Rate =2.984379651E-002 kg/s\n   **   ~~~   **  Environment=RUN PERIOD 1, at Simulation time=10/28 07:56 - 08:00\n   ************* Simulation Error Summary *************\n   ************* There are 1 unused schedules in input.\n   ************* There are 1 unused week schedules in input.\n   ************* There are 11 unused day schedules in input.\n   ************* Use Output:Diagnostics,DisplayUnusedSchedules; to see them.\n   *************\n   ************* ===== Recurring Error Summary =====\n   ************* The following recurring error messages occurred.\n   *************\n   *************  ** Warning ** ControlCompOutput: Maximum iterations error for ZoneHVAC:Baseboard:RadiantConvective:Water = ZONE HVAC BASEBOARD RADIANT CONVECTIVE WATER 1\n   *************  **   ~~~   **   This error occurred 38 total times;\n   *************  **   ~~~   **   during Warmup 0 times;\n   *************  **   ~~~   **   during Sizing 0 times.\n   *************  **   ~~~   **   Max=1.798546 %  Min=0.108769 %\n   *************\n   *************\n   ************* ===== Final Error Summary =====\n   ************* The following error categories occurred.  Consider correcting or noting.\n   ************* Nominally Unused Constructions\n   ************* ..The nominally unused constructions warning is provided to alert you to potential conditions that can cause\n   ************* ..extra time during simulation. Each construction is calculated by the algorithm indicated in the HeatBalanceAlgorithm\n   ************* ..object. You may remove the constructions indicated (when you use the DisplayExtraWarnings option).\n   *************\n   ************* EnergyPlus Warmup Error Summary. During Warmup: 0 Warning; 0 Severe Errors.\n   ************* EnergyPlus Sizing Error Summary. During Sizing: 15 Warning; 0 Severe Errors.\n   ************* EnergyPlus Completed Successfully-- 55 Warning; 0 Severe Errors; ",
  "seed_file": "in.osm",
  "steps": [
    {
      "arguments": {
      },
      "measure_dir_name": "openstudio_results",
      "result": {
        "measure_class_name": "OpenStudioResults",
        "measure_display_name": "OpenStudio Results",
        "measure_name": "openstudio_results",
        "measure_taxonomy": "Reporting.QAQC",
        "measure_type": "ReportingMeasure",
        "measure_uid": "a25386cd-60e4-46bc-8b11-c755f379d916",
        "measure_version_id": "5b8e57e8-830a-43ae-90d4-a41d97698d95",
        "measure_version_modified": "20171219T161835Z",
        "measure_xml_checksum": "557BF06F",
        "stderr": "",
        "stdout": "",
        "step_errors": [

        ],
        "step_final_condition": "Generated report with 21 sections to ./report.html.",
        "step_info": [

        ],
        "step_initial_condition": "Gathering data from EnergyPlus SQL file and OSM model.",
        "step_result": "Success",
        "step_values": [
          {
            "name": "building_summary_section",
            "value": true
          },
          {
            "name": "annual_overview_section",
            "value": true
          },
          {
            "name": "monthly_overview_section",
            "value": true
          },
          {
            "name": "utility_bills_rates_section",
            "value": true
          },
          {
            "name": "envelope_section_section",
            "value": true
          },
          {
            "name": "space_type_breakdown_section",
            "value": true
          },
          {
            "name": "space_type_details_section",
            "value": true
          },
          {
            "name": "interior_lighting_section",
            "value": true
          },
          {
            "name": "plug_loads_section",
            "value": true
          },
          {
            "name": "exterior_light_section",
            "value": true
          },
          {
            "name": "water_use_section",
            "value": true
          },
          {
            "name": "hvac_load_profile",
            "value": true
          },
          {
            "name": "zone_condition_section",
            "value": true
          },
          {
            "name": "zone_summary_section",
            "value": true
          },
          {
            "name": "zone_equipment_detail_section",
            "value": true
          },
          {
            "name": "air_loops_detail_section",
            "value": true
          },
          {
            "name": "plant_loops_detail_section",
            "value": true
          },
          {
            "name": "outdoor_air_section",
            "value": true
          },
          {
            "name": "cost_summary_section",
            "value": true
          },
          {
            "name": "source_energy_section",
            "value": true
          },
          {
            "name": "schedules_overview_section",
            "value": true
          },
          {
            "display_name": "Building 1",
            "name": "building_name",
            "value": "building_name"
          },
          {
            "name": "total_site_energy",
            "units": "kBtu",
            "value": 4334244.474967159
          },
          {
            "name": "net_site_energy",
            "units": "kBtu",
            "value": 4334244.474967159
          },
          {
            "name": "total_building_area",
            "units": "ft^2",
            "value": 161458.65625064584
          },
          {
            "name": "total_site_eui",
            "units": "kBtu/ft^2",
            "value": 26.844299188510202
          },
          {
            "name": "eui",
            "units": "kBtu/ft^2",
            "value": 26.844299188510202
          },
          {
            "name": "unmet_hours_during_heating",
            "units": "hr",
            "value": 5591.75
          },
          {
            "name": "unmet_hours_during_cooling",
            "units": "hr",
            "value": 4346.75
          },
          {
            "name": "unmet_hours_during_occupied_heating",
            "units": "hr",
            "value": 2620.75
          },
          {
            "name": "unmet_hours_during_occupied_cooling",
            "units": "hr",
            "value": 3429.5
          },
          {
            "name": "unmet_hours_tolerance_heating",
            "units": "F",
            "value": 0.36
          },
          {
            "name": "unmet_hours_tolerance_cooling",
            "units": "F",
            "value": 0.36
          },
          {
            "name": "end_use_heating",
            "units": "kBtu",
            "value": 875508.1522046141
          },
          {
            "name": "end_use_cooling",
            "units": "kBtu",
            "value": 230376.4292633549
          },
          {
            "name": "end_use_interior_lighting",
            "units": "kBtu",
            "value": 1566921.785130773
          },
          {
            "name": "end_use_exterior_lighting",
            "units": "kBtu",
            "value": 0
          },
          {
            "name": "end_use_interior_equipment",
            "units": "kBtu",
            "value": 1566921.785130773
          },
          {
            "name": "end_use_exterior_equipment",
            "units": "kBtu",
            "value": 0
          },
          {
            "name": "end_use_fans",
            "units": "kBtu",
            "value": 61693.41636119382
          },
          {
            "name": "end_use_pumps",
            "units": "kBtu",
            "value": 32803.95053404391
          },
          {
            "name": "end_use_heat_rejection",
            "units": "kBtu",
            "value": 0
          },
          {
            "name": "end_use_humidification",
            "units": "kBtu",
            "value": 0
          },
          {
            "name": "end_use_heat_recovery",
            "units": "kBtu",
            "value": 0
          },
          {
            "name": "end_use_water_systems",
            "units": "kBtu",
            "value": 0
          },
          {
            "name": "end_use_refrigeration",
            "units": "kBtu",
            "value": 0
          },
          {
            "name": "end_use_generators",
            "units": "kBtu",
            "value": 0
          },
          {
            "name": "fuel_electricity",
            "units": "kBtu",
            "value": 3657844.265226763
          },
          {
            "name": "fuel_natural_gas",
            "units": "kBtu",
            "value": 402016.63158089353
          },
          {
            "name": "fuel_additional_fuel",
            "units": "kBtu",
            "value": 0
          },
          {
            "name": "fuel_district_cooling",
            "units": "kBtu",
            "value": 223751.1875923648
          },
          {
            "name": "fuel_district_heating",
            "units": "kBtu",
            "value": 50632.39056713741
          },
          {
            "name": "end_use_electricity_heating",
            "units": "kWh",
            "value": 123927.77777777778
          },
          {
            "name": "end_use_electricity_cooling",
            "units": "kWh",
            "value": 1941.6666666666667
          },
          {
            "name": "end_use_electricity_interior_lighting",
            "units": "kWh",
            "value": 459219.44444444444
          },
          {
            "name": "end_use_electricity_exterior_lighting",
            "units": "kWh",
            "value": 0
          },
          {
            "name": "end_use_electricity_interior_equipment",
            "units": "kWh",
            "value": 459219.44444444444
          },
          {
            "name": "end_use_electricity_exterior_equipment",
            "units": "kWh",
            "value": 0
          },
          {
            "name": "end_use_electricity_fans",
            "units": "kWh",
            "value": 18080.555555555555
          },
          {
            "name": "end_use_electricity_pumps",
            "units": "kWh",
            "value": 9613.888888888889
          },
          {
            "name": "end_use_electricity_heat_rejection",
            "units": "kWh",
            "value": 0
          },
          {
            "name": "end_use_electricity_humidification",
            "units": "kWh",
            "value": 0
          },
          {
            "name": "end_use_electricity_heat_recovery",
            "units": "kWh",
            "value": 0
          },
          {
            "name": "end_use_electricity_water_systems",
            "units": "kWh",
            "value": 0
          },
          {
            "name": "end_use_electricity_refrigeration",
            "units": "kWh",
            "value": 0
          },
          {
            "name": "end_use_electricity_generators",
            "units": "kWh",
            "value": 0
          },
          {
            "name": "end_use_natural_gas_heating",
            "units": "therms",
            "value": 4020.942
          },
          {
            "name": "end_use_natural_gas_cooling",
            "units": "therms",
            "value": 0
          },
          {
            "name": "end_use_natural_gas_interior_lighting",
            "units": "therms",
            "value": 0
          },
          {
            "name": "end_use_natural_gas_exterior_lighting",
            "units": "therms",
            "value": 0
          },
          {
            "name": "end_use_natural_gas_interior_equipment",
            "units": "therms",
            "value": 0
          },
          {
            "name": "end_use_natural_gas_exterior_equipment",
            "units": "therms",
            "value": 0
          },
          {
            "name": "end_use_natural_gas_fans",
            "units": "therms",
            "value": 0
          },
          {
            "name": "end_use_natural_gas_pumps",
            "units": "therms",
            "value": 0
          },
          {
            "name": "end_use_natural_gas_heat_rejection",
            "units": "therms",
            "value": 0
          },
          {
            "name": "end_use_natural_gas_humidification",
            "units": "therms",
            "value": 0
          },
          {
            "name": "end_use_natural_gas_heat_recovery",
            "units": "therms",
            "value": 0
          },
          {
            "name": "end_use_natural_gas_water_systems",
            "units": "therms",
            "value": 0
          },
          {
            "name": "end_use_natural_gas_refrigeration",
            "units": "therms",
            "value": 0
          },
          {
            "name": "end_use_natural_gas_generators",
            "units": "therms",
            "value": 0
          },
          {
            "name": "electricity_heating_ip",
            "units": "kWh",
            "value": 123928.3
          },
          {
            "name": "electricity_cooling_ip",
            "units": "kWh",
            "value": 1942.57356135
          },
          {
            "name": "electricity_interior_lighting_ip",
            "units": "kWh",
            "value": 459220.8333333333
          },
          {
            "name": "electricity_exterior_lighting_ip",
            "units": "kWh",
            "value": 0
          },
          {
            "name": "electricity_interior_equipment_ip",
            "units": "kWh",
            "value": 459220.8333333333
          },
          {
            "name": "electricity_exterior_equipment_ip",
            "units": "kWh",
            "value": 0
          },
          {
            "name": "electricity_fans_ip",
            "units": "kWh",
            "value": 18081.322222222225
          },
          {
            "name": "electricity_pumps_ip",
            "units": "kWh",
            "value": 9614.380555555555
          },
          {
            "name": "electricity_heat_rejection_ip",
            "units": "kWh",
            "value": 0
          },
          {
            "name": "electricity_humidification_ip",
            "units": "kWh",
            "value": 0
          },
          {
            "name": "electricity_heat_recovery_ip",
            "units": "kWh",
            "value": 0
          },
          {
            "name": "electricity_water_systems_ip",
            "units": "kWh",
            "value": 0
          },
          {
            "name": "electricity_refrigeration_ip",
            "units": "kWh",
            "value": 0
          },
          {
            "name": "electricity_generators_ip",
            "units": "kWh",
            "value": 0
          },
          {
            "name": "electricity_ip",
            "units": "kWh",
            "value": 1072008.2430057945
          },
          {
            "name": "natural_gas_heating_ip",
            "units": "MBtu",
            "value": 402.01658419003746
          },
          {
            "name": "natural_gas_cooling_ip",
            "units": "MBtu",
            "value": 0
          },
          {
            "name": "natural_gas_interior_lighting_ip",
            "units": "MBtu",
            "value": 0
          },
          {
            "name": "natural_gas_exterior_lighting_ip",
            "units": "MBtu",
            "value": 0
          },
          {
            "name": "natural_gas_interior_equipment_ip",
            "units": "MBtu",
            "value": 0
          },
          {
            "name": "natural_gas_exterior_equipment_ip",
            "units": "MBtu",
            "value": 0
          },
          {
            "name": "natural_gas_fans_ip",
            "units": "MBtu",
            "value": 0
          },
          {
            "name": "natural_gas_pumps_ip",
            "units": "MBtu",
            "value": 0
          },
          {
            "name": "natural_gas_heat_rejection_ip",
            "units": "MBtu",
            "value": 0
          },
          {
            "name": "natural_gas_humidification_ip",
            "units": "MBtu",
            "value": 0
          },
          {
            "name": "natural_gas_heat_recovery_ip",
            "units": "MBtu",
            "value": 0
          },
          {
            "name": "natural_gas_water_systems_ip",
            "units": "MBtu",
            "value": 0
          },
          {
            "name": "natural_gas_refrigeration_ip",
            "units": "MBtu",
            "value": 0
          },
          {
            "name": "natural_gas_generators_ip",
            "units": "MBtu",
            "value": 0
          },
          {
            "name": "natural_gas_ip",
            "units": "MBtu",
            "value": 402.01658419003746
          },
          {
            "name": "additional_fuel_heating_ip",
            "units": "MBtu",
            "value": 0
          },
          {
            "name": "additional_fuel_cooling_ip",
            "units": "MBtu",
            "value": 0
          },
          {
            "name": "additional_fuel_interior_lighting_ip",
            "units": "MBtu",
            "value": 0
          },
          {
            "name": "additional_fuel_exterior_lighting_ip",
            "units": "MBtu",
            "value": 0
          },
          {
            "name": "additional_fuel_interior_equipment_ip",
            "units": "MBtu",
            "value": 0
          },
          {
            "name": "additional_fuel_exterior_equipment_ip",
            "units": "MBtu",
            "value": 0
          },
          {
            "name": "additional_fuel_fans_ip",
            "units": "MBtu",
            "value": 0
          },
          {
            "name": "additional_fuel_pumps_ip",
            "units": "MBtu",
            "value": 0
          },
          {
            "name": "additional_fuel_heat_rejection_ip",
            "units": "MBtu",
            "value": 0
          },
          {
            "name": "additional_fuel_humidification_ip",
            "units": "MBtu",
            "value": 0
          },
          {
            "name": "additional_fuel_heat_recovery_ip",
            "units": "MBtu",
            "value": 0
          },
          {
            "name": "additional_fuel_water_systems_ip",
            "units": "MBtu",
            "value": 0
          },
          {
            "name": "additional_fuel_refrigeration_ip",
            "units": "MBtu",
            "value": 0
          },
          {
            "name": "additional_fuel_generators_ip",
            "units": "MBtu",
            "value": 0
          },
          {
            "name": "additional_fuel_ip",
            "units": "MBtu",
            "value": 0
          },
          {
            "name": "district_cooling_heating_ip",
            "units": "MBtu",
            "value": 0
          },
          {
            "name": "district_cooling_cooling_ip",
            "units": "MBtu",
            "value": 223.74795553598454
          },
          {
            "name": "district_cooling_interior_lighting_ip",
            "units": "MBtu",
            "value": 0
          },
          {
            "name": "district_cooling_exterior_lighting_ip",
            "units": "MBtu",
            "value": 0
          },
          {
            "name": "district_cooling_interior_equipment_ip",
            "units": "MBtu",
            "value": 0
          },
          {
            "name": "district_cooling_exterior_equipment_ip",
            "units": "MBtu",
            "value": 0
          },
          {
            "name": "district_cooling_fans_ip",
            "units": "MBtu",
            "value": 0
          },
          {
            "name": "district_cooling_pumps_ip",
            "units": "MBtu",
            "value": 0
          },
          {
            "name": "district_cooling_heat_rejection_ip",
            "units": "MBtu",
            "value": 0
          },
          {
            "name": "district_cooling_humidification_ip",
            "units": "MBtu",
            "value": 0
          },
          {
            "name": "district_cooling_heat_recovery_ip",
            "units": "MBtu",
            "value": 0
          },
          {
            "name": "district_cooling_water_systems_ip",
            "units": "MBtu",
            "value": 0
          },
          {
            "name": "district_cooling_refrigeration_ip",
            "units": "MBtu",
            "value": 0
          },
          {
            "name": "district_cooling_generators_ip",
            "units": "MBtu",
            "value": 0
          },
          {
            "name": "district_cooling_ip",
            "units": "MBtu",
            "value": 223.74795553598454
          },
          {
            "name": "district_heating_heating_ip",
            "units": "MBtu",
            "value": 50.63556009435409
          },
          {
            "name": "district_heating_cooling_ip",
            "units": "MBtu",
            "value": 0
          },
          {
            "name": "district_heating_interior_lighting_ip",
            "units": "MBtu",
            "value": 0
          },
          {
            "name": "district_heating_exterior_lighting_ip",
            "units": "MBtu",
            "value": 0
          },
          {
            "name": "district_heating_interior_equipment_ip",
            "units": "MBtu",
            "value": 0
          },
          {
            "name": "district_heating_exterior_equipment_ip",
            "units": "MBtu",
            "value": 0
          },
          {
            "name": "district_heating_fans_ip",
            "units": "MBtu",
            "value": 0
          },
          {
            "name": "district_heating_pumps_ip",
            "units": "MBtu",
            "value": 0
          },
          {
            "name": "district_heating_heat_rejection_ip",
            "units": "MBtu",
            "value": 0
          },
          {
            "name": "district_heating_humidification_ip",
            "units": "MBtu",
            "value": 0
          },
          {
            "name": "district_heating_heat_recovery_ip",
            "units": "MBtu",
            "value": 0
          },
          {
            "name": "district_heating_water_systems_ip",
            "units": "MBtu",
            "value": 0
          },
          {
            "name": "district_heating_refrigeration_ip",
            "units": "MBtu",
            "value": 0
          },
          {
            "name": "district_heating_generators_ip",
            "units": "MBtu",
            "value": 0
          },
          {
            "name": "district_heating_ip",
            "units": "MBtu",
            "value": 50.63556009435409
          },
          {
            "name": "water_heating_ip",
            "units": "MBtu",
            "value": 0
          },
          {
            "name": "water_cooling_ip",
            "units": "MBtu",
            "value": 0
          },
          {
            "name": "water_interior_lighting_ip",
            "units": "MBtu",
            "value": 0
          },
          {
            "name": "water_exterior_lighting_ip",
            "units": "MBtu",
            "value": 0
          },
          {
            "name": "water_interior_equipment_ip",
            "units": "MBtu",
            "value": 0
          },
          {
            "name": "water_exterior_equipment_ip",
            "units": "MBtu",
            "value": 0
          },
          {
            "name": "water_fans_ip",
            "units": "MBtu",
            "value": 0
          },
          {
            "name": "water_pumps_ip",
            "units": "MBtu",
            "value": 0
          },
          {
            "name": "water_heat_rejection_ip",
            "units": "MBtu",
            "value": 0
          },
          {
            "name": "water_humidification_ip",
            "units": "MBtu",
            "value": 0
          },
          {
            "name": "water_heat_recovery_ip",
            "units": "MBtu",
            "value": 0
          },
          {
            "name": "water_water_systems_ip",
            "units": "MBtu",
            "value": 0
          },
          {
            "name": "water_refrigeration_ip",
            "units": "MBtu",
            "value": 0
          },
          {
            "name": "water_generators_ip",
            "units": "MBtu",
            "value": 0
          },
          {
            "name": "water_ip",
            "units": "MBtu",
            "value": 0
          },
          {
            "name": "ashrae_189_1_2009_ext_roof_iead_climate_zone_2_5",
            "units": "ft^2",
            "value": 53819.55208354861
          },
          {
            "name": "ashrae_189_1_2009_ext_wall_steel_frame_climate_zone_4_8",
            "units": "ft^2",
            "value": 23250.046500093013
          },
          {
            "name": "ashrae_189_1_2009_ext_window_climate_zone_4_5",
            "units": "ft^2",
            "value": 15500.031000061987
          },
          {
            "name": "gross_window_wall_ratio",
            "units": "%",
            "value": 40
          },
          {
            "name": "gross_window_wall_ratio_conditioned",
            "units": "%",
            "value": 40
          },
          {
            "name": "skylight_roof_ratio",
            "units": "%",
            "value": 0
          },
          {
            "name": "space_type_baseline_model_space_type",
            "units": "ft^2",
            "value": 161458.65625064584
          },
          {
            "name": "exterior_lighting_total_power",
            "units": "W",
            "value": 0
          },
          {
            "name": "exterior_lighting_total_consumption",
            "units": "kWh",
            "value": 1270241.6666666667
          },
          {
            "name": "inflation_approach",
            "value": "Constant Dollar"
          },
          {
            "name": "analysis_length",
            "units": "yrs",
            "value": 25
          },
          {
            "name": "annual_peak_electric_demand",
            "units": "kW",
            "value": 351.95727000000005
          },
          {
            "name": "first_year_capital_cost",
            "units": "$",
            "value": 0
          },
          {
            "name": "annual_utility_cost",
            "units": "$",
            "value": 0
          },
          {
            "name": "total_lifecycle_cost",
            "units": "$",
            "value": 0
          }
        ],
        "step_warnings": [

        ]
      }
    }
  ],
  "weather_file": "../../weatherdata/USA_IL_Chicago-OHare.Intl.AP.725300_TMY3.epw"
}