{
  "completed_status": "Success",
  "current_step": 1,
  "eplusout_err": [
    "Program Version,EnergyPlus, Version 8.7.0-ae053cab77, IDD_Version 8.7.0",
    "   ************* Beginning Zone Sizing Calculations",
    "   ** Warning ** ProcessScheduleInput: Schedule:Day:Interval=\"SCHEDULE DAY 10\", Blank Schedule Type Limits Name input -- will not be validated.",
    "   ** Warning ** ProcessScheduleInput: Schedule:Day:Interval=\"SCHEDULE DAY 11\", Blank Schedule Type Limits Name input -- will not be validated.",
    "   ** Warning ** ProcessScheduleInput: Schedule:Day:Interval=\"SCHEDULE DAY 2\", Blank Schedule Type Limits Name input -- will not be validated.",
    "   ** Warning ** ProcessScheduleInput: Schedule:Day:Interval=\"SCHEDULE DAY 3\", Blank Schedule Type Limits Name input -- will not be validated.",
    "   ** Warning ** ProcessScheduleInput: Schedule:Day:Interval=\"SCHEDULE DAY 4\", Blank Schedule Type Limits Name input -- will not be validated.",
    "   ** Warning ** ProcessScheduleInput: Schedule:Day:Interval=\"SCHEDULE DAY 5\", Blank Schedule Type Limits Name input -- will not be validated.",
    "   ** Warning ** ProcessScheduleInput: Schedule:Day:Interval=\"SCHEDULE DAY 6\", Blank Schedule Type Limits Name input -- will not be validated.",
    "   ** Warning ** ProcessScheduleInput: Schedule:Day:Interval=\"SCHEDULE DAY 7\", Blank Schedule Type Limits Name input -- will not be validated.",
    "   ** Warning ** ProcessScheduleInput: Schedule:Day:Interval=\"SCHEDULE DAY 8\", Blank Schedule Type Limits Name input -- will not be validated.",
    "   ** Warning ** ProcessScheduleInput: Schedule:Day:Interval=\"SCHEDULE DAY 9\", Blank Schedule Type Limits Name input -- will not be validated.",
    "   ** Warning ** ProcessScheduleInput: Schedule:Constant=\"ALWAYS ON CONTINUOUS\", Blank Schedule Type Limits Name input -- will not be validated.",
    "   ** Warning ** GetHTSurfaceData: Surfaces with interface to Ground found but no \"Ground Temperatures\" were input.",
    "   **   ~~~   ** Found first in surface=SURFACE 25",
    "   **   ~~~   ** Defaults, constant throughout the year of (18.0) will be used.",
    "   ** Warning ** CheckUsedConstructions: There are 6 nominally unused constructions in input.",
    "   **   ~~~   ** For explicit details on each unused construction, use Output:Diagnostics,DisplayExtraWarnings;",
    "   ** Warning ** GetSimpleAirModelInputs: ZoneInfiltration:DesignFlowRate=\"STORY 1 CORE THERMAL ZONE BASELINE MODEL INFILTRATION\", Design Flow Rate Calculation Method specifies Flow per Exterior Surface Area, but Exterior Surface Area = 0.  0 Infiltration will result.",
    "   ** Warning ** GetSimpleAirModelInputs: ZoneInfiltration:DesignFlowRate=\"STORY 2 CORE THERMAL ZONE BASELINE MODEL INFILTRATION\", Design Flow Rate Calculation Method specifies Flow per Exterior Surface Area, but Exterior Surface Area = 0.  0 Infiltration will result.",
    "   ************* Beginning Plant Sizing Calculations",
    "   ** Warning ** Output:Meter:MeterFileOnly requested for \"Electricity:Facility\" (TimeStep), already on \"Output:Meter\". Will report to both eplusout.eso and eplusout.mtr",
    "   ************* Testing Individual Branch Integrity",
    "   ************* All Branches passed integrity testing",
    "   ************* Testing Individual Supply Air Path Integrity",
    "   ************* All Supply Air Paths passed integrity testing",
    "   ************* Testing Individual Return Air Path Integrity",
    "   ************* All Return Air Paths passed integrity testing",
    "   ************* No node connection errors were found.",
    "   ************* Beginning Simulation",
    "   ** Warning ** ControlCompOutput: Maximum iterations exceeded for ZoneHVAC:Baseboard:RadiantConvective:Water = ZONE HVAC BASEBOARD RADIANT CONVECTIVE WATER 1",
    "   **   ~~~   ** ... Load met       = 732.28631 W.",
    "   **   ~~~   ** ... Load requested = 736.03910 W.",
    "   **   ~~~   ** ... Error          = 0.50986262 %.",
    "   **   ~~~   ** ... Tolerance      = 0.10000000 %.",
    "   **   ~~~   ** ... Error          = (Load met - Load requested) / MAXIMUM(Load requested, 100)",
    "   **   ~~~   ** ... Actuated Node Mass Flow Rate =1.591650527E-002 kg/s",
    "   **   ~~~   **  Environment=RUN PERIOD 1, at Simulation time=04/21 22:00 - 22:15",
    "   ** Warning ** ControlCompOutput: Maximum iterations exceeded for ZoneHVAC:Baseboard:RadiantConvective:Water = ZONE HVAC BASEBOARD RADIANT CONVECTIVE WATER 1",
    "   **   ~~~   ** ... Load met       = 732.76536 W.",
    "   **   ~~~   ** ... Load requested = 736.03910 W.",
    "   **   ~~~   ** ... Error          = 0.44477729 %.",
    "   **   ~~~   ** ... Tolerance      = 0.10000000 %.",
    "   **   ~~~   ** ... Error          = (Load met - Load requested) / MAXIMUM(Load requested, 100)",
    "   **   ~~~   ** ... Actuated Node Mass Flow Rate =1.591650527E-002 kg/s",
    "   **   ~~~   **  Environment=RUN PERIOD 1, at Simulation time=04/21 22:00 - 22:15",
    "   ** Warning ** ControlCompOutput: Maximum iterations exceeded for ZoneHVAC:Baseboard:RadiantConvective:Water = ZONE HVAC BASEBOARD RADIANT CONVECTIVE WATER 1",
    "   **   ~~~   ** ... Load met       = 69.71192 W.",
    "   **   ~~~   ** ... Load requested = 70.30088 W.",
    "   **   ~~~   ** ... Error          = 0.58895149 %.",
    "   **   ~~~   ** ... Tolerance      = 0.10000000 %.",
    "   **   ~~~   ** ... Error          = (Load met - Load requested) / MAXIMUM(Load requested, 100)",
    "   **   ~~~   ** ... Actuated Node Mass Flow Rate =1.492062319E-003 kg/s",
    "   **   ~~~   **  Environment=RUN PERIOD 1, at Simulation time=04/23 07:08 - 07:10",
    "   ** Warning ** ControlCompOutput: Maximum iterations exceeded for ZoneHVAC:Baseboard:RadiantConvective:Water = ZONE HVAC BASEBOARD RADIANT CONVECTIVE WATER 1",
    "   **   ~~~   ** ... Load met       = 69.71431 W.",
    "   **   ~~~   ** ... Load requested = 70.30088 W.",
    "   **   ~~~   ** ... Error          = 0.58656241 %.",
    "   **   ~~~   ** ... Tolerance      = 0.10000000 %.",
    "   **   ~~~   ** ... Error          = (Load met - Load requested) / MAXIMUM(Load requested, 100)",
    "   **   ~~~   ** ... Actuated Node Mass Flow Rate =1.492062319E-003 kg/s",
    "   **   ~~~   **  Environment=RUN PERIOD 1, at Simulation time=04/23 07:08 - 07:10",
    "   ** Warning ** ControlCompOutput: Maximum iterations exceeded for ZoneHVAC:Baseboard:RadiantConvective:Water = ZONE HVAC BASEBOARD RADIANT CONVECTIVE WATER 1",
    "   **   ~~~   ** ... Load met       = 69.83046 W.",
    "   **   ~~~   ** ... Load requested = 70.21588 W.",
    "   **   ~~~   ** ... Error          = 0.38541684 %.",
    "   **   ~~~   ** ... Tolerance      = 0.10000000 %.",
    "   **   ~~~   ** ... Error          = (Load met - Load requested) / MAXIMUM(Load requested, 100)",
    "   **   ~~~   ** ... Actuated Node Mass Flow Rate =1.492062319E-003 kg/s",
    "   **   ~~~   **  Environment=RUN PERIOD 1, at Simulation time=04/23 07:12 - 07:15",
    "   ** Warning ** ControlCompOutput: Maximum iterations exceeded for ZoneHVAC:Baseboard:RadiantConvective:Water = ZONE HVAC BASEBOARD RADIANT CONVECTIVE WATER 1",
    "   **   ~~~   ** ... Load met       = 69.83061 W.",
    "   **   ~~~   ** ... Load requested = 70.21588 W.",
    "   **   ~~~   ** ... Error          = 0.38526153 %.",
    "   **   ~~~   ** ... Tolerance      = 0.10000000 %.",
    "   **   ~~~   ** ... Error          = (Load met - Load requested) / MAXIMUM(Load requested, 100)",
    "   **   ~~~   ** ... Actuated Node Mass Flow Rate =1.492062319E-003 kg/s",
    "   **   ~~~   **  Environment=RUN PERIOD 1, at Simulation time=04/23 07:12 - 07:15",
    "   ** Warning ** ControlCompOutput: Maximum iterations exceeded for ZoneHVAC:Baseboard:RadiantConvective:Water = ZONE HVAC BASEBOARD RADIANT CONVECTIVE WATER 1",
    "   **   ~~~   ** ... Load met       = 187.09875 W.",
    "   **   ~~~   ** ... Load requested = 189.45897 W.",
    "   **   ~~~   ** ... Error          = 1.24576751 %.",
    "   **   ~~~   ** ... Tolerance      = 0.10000000 %.",
    "   **   ~~~   ** ... Error          = (Load met - Load requested) / MAXIMUM(Load requested, 100)",
    "   **   ~~~   ** ... Actuated Node Mass Flow Rate =3.979035242E-003 kg/s",
    "   **   ~~~   **  Environment=RUN PERIOD 1, at Simulation time=04/23 07:30 - 07:45",
    "   ** Warning ** ControlCompOutput: Maximum iterations exceeded for ZoneHVAC:Baseboard:RadiantConvective:Water = ZONE HVAC BASEBOARD RADIANT CONVECTIVE WATER 1",
    "   **   ~~~   ** ... Load met       = 187.39798 W.",
    "   **   ~~~   ** ... Load requested = 189.45897 W.",
    "   **   ~~~   ** ... Error          = 1.08782620 %.",
    "   **   ~~~   ** ... Tolerance      = 0.10000000 %.",
    "   **   ~~~   ** ... Error          = (Load met - Load requested) / MAXIMUM(Load requested, 100)",
    "   **   ~~~   ** ... Actuated Node Mass Flow Rate =3.979035242E-003 kg/s",
    "   **   ~~~   **  Environment=RUN PERIOD 1, at Simulation time=04/23 07:30 - 07:45",
    "   ** Warning ** ControlCompOutput: Maximum iterations exceeded for ZoneHVAC:Baseboard:RadiantConvective:Water = ZONE HVAC BASEBOARD RADIANT CONVECTIVE WATER 1",
    "   **   ~~~   ** ... Load met       = 94.67373 W.",
    "   **   ~~~   ** ... Load requested = 95.18046 W.",
    "   **   ~~~   ** ... Error          = 0.50673125 %.",
    "   **   ~~~   ** ... Tolerance      = 0.10000000 %.",
    "   **   ~~~   ** ... Error          = (Load met - Load requested) / MAXIMUM(Load requested, 100)",
    "   **   ~~~   ** ... Actuated Node Mass Flow Rate =1.989456904E-003 kg/s",
    "   **   ~~~   **  Environment=RUN PERIOD 1, at Simulation time=04/23 07:45 - 07:49",
    "   ** Warning ** ControlCompOutput: Maximum iterations exceeded for ZoneHVAC:Baseboard:RadiantConvective:Water = ZONE HVAC BASEBOARD RADIANT CONVECTIVE WATER 1",
    "   **   ~~~   ** ... Load met       = 94.69429 W.",
    "   **   ~~~   ** ... Load requested = 95.18046 W.",
    "   **   ~~~   ** ... Error          = 0.48617517 %.",
    "   **   ~~~   ** ... Tolerance      = 0.10000000 %.",
    "   **   ~~~   ** ... Error          = (Load met - Load requested) / MAXIMUM(Load requested, 100)",
    "   **   ~~~   ** ... Actuated Node Mass Flow Rate =1.989456904E-003 kg/s",
    "   **   ~~~   **  Environment=RUN PERIOD 1, at Simulation time=04/23 07:45 - 07:49",
    "   ** Warning ** ControlCompOutput: Maximum iterations exceeded for ZoneHVAC:Baseboard:RadiantConvective:Water = ZONE HVAC BASEBOARD RADIANT CONVECTIVE WATER 1",
    "   **   ~~~   ** ... Load met       = 94.43388 W.",
    "   **   ~~~   ** ... Load requested = 96.24445 W.",
    "   **   ~~~   ** ... Error          = 1.81057076 %.",
    "   **   ~~~   ** ... Tolerance      = 0.10000000 %.",
    "   **   ~~~   ** ... Error          = (Load met - Load requested) / MAXIMUM(Load requested, 100)",
    "   **   ~~~   ** ... Actuated Node Mass Flow Rate =1.989456904E-003 kg/s",
    "   **   ~~~   **  Environment=RUN PERIOD 1, at Simulation time=04/23 07:49 - 07:52",
    "   ** Warning ** ControlCompOutput: Maximum iterations exceeded for ZoneHVAC:Baseboard:RadiantConvective:Water = ZONE HVAC BASEBOARD RADIANT CONVECTIVE WATER 1",
    "   **   ~~~   ** ... Load met       = 94.43986 W.",
    "   **   ~~~   ** ... Load requested = 96.24445 W.",
    "   **   ~~~   ** ... Error          = 1.80459881 %.",
    "   **   ~~~   ** ... Tolerance      = 0.10000000 %.",
    "   **   ~~~   ** ... Error          = (Load met - Load requested) / MAXIMUM(Load requested, 100)",
    "   **   ~~~   ** ... Actuated Node Mass Flow Rate =1.989456904E-003 kg/s",
    "   **   ~~~   **  Environment=RUN PERIOD 1, at Simulation time=04/23 07:49 - 07:52",
    "   ** Warning ** ControlCompOutput: Maximum iterations exceeded for ZoneHVAC:Baseboard:RadiantConvective:Water = ZONE HVAC BASEBOARD RADIANT CONVECTIVE WATER 1",
    "   **   ~~~   ** ... Load met       = 94.47472 W.",
    "   **   ~~~   ** ... Load requested = 98.38662 W.",
    "   **   ~~~   ** ... Error          = 3.91189343 %.",
    "   **   ~~~   ** ... Tolerance      = 0.10000000 %.",
    "   **   ~~~   ** ... Error          = (Load met - Load requested) / MAXIMUM(Load requested, 100)",
    "   **   ~~~   ** ... Actuated Node Mass Flow Rate =1.989456904E-003 kg/s",
    "   **   ~~~   **  Environment=RUN PERIOD 1, at Simulation time=04/23 07:53 - 07:56",
    "   ** Warning ** ControlCompOutput: Maximum iterations exceeded for ZoneHVAC:Baseboard:RadiantConvective:Water = ZONE HVAC BASEBOARD RADIANT CONVECTIVE WATER 1",
    "   **   ~~~   ** ... Load met       = 94.47444 W.",
    "   **   ~~~   ** ... Load requested = 98.38662 W.",
    "   **   ~~~   ** ... Error          = 3.91217599 %.",
    "   **   ~~~   ** ... Tolerance      = 0.10000000 %.",
    "   **   ~~~   ** ... Error          = (Load met - Load requested) / MAXIMUM(Load requested, 100)",
    "   **   ~~~   ** ... Actuated Node Mass Flow Rate =1.989456904E-003 kg/s",
    "   **   ~~~   **  Environment=RUN PERIOD 1, at Simulation time=04/23 07:53 - 07:56",
    "   ** Warning ** ControlCompOutput: Maximum iterations exceeded for ZoneHVAC:Baseboard:RadiantConvective:Water = ZONE HVAC BASEBOARD RADIANT CONVECTIVE WATER 1",
    "   **   ~~~   ** ... Load met       = 2982.99467 W.",
    "   **   ~~~   ** ... Load requested = 2991.75713 W.",
    "   **   ~~~   ** ... Error          = 0.29288679 %.",
    "   **   ~~~   ** ... Tolerance      = 0.10000000 %.",
    "   **   ~~~   ** ... Error          = (Load met - Load requested) / MAXIMUM(Load requested, 100)",
    "   **   ~~~   ** ... Actuated Node Mass Flow Rate =6.366638539E-002 kg/s",
    "   **   ~~~   **  Environment=RUN PERIOD 1, at Simulation time=04/29 07:30 - 07:45",
    "   ** Warning ** ControlCompOutput: Maximum iterations exceeded for ZoneHVAC:Baseboard:RadiantConvective:Water = ZONE HVAC BASEBOARD RADIANT CONVECTIVE WATER 1",
    "   **   ~~~   ** ... Load met       = 2983.26225 W.",
    "   **   ~~~   ** ... Load requested = 2991.75713 W.",
    "   **   ~~~   ** ... Error          = 0.28394294 %.",
    "   **   ~~~   ** ... Tolerance      = 0.10000000 %.",
    "   **   ~~~   ** ... Error          = (Load met - Load requested) / MAXIMUM(Load requested, 100)",
    "   **   ~~~   ** ... Actuated Node Mass Flow Rate =6.366638539E-002 kg/s",
    "   **   ~~~   **  Environment=RUN PERIOD 1, at Simulation time=04/29 07:30 - 07:45",
    "   ** Warning ** ControlCompOutput: Maximum iterations exceeded for ZoneHVAC:Baseboard:RadiantConvective:Water = ZONE HVAC BASEBOARD RADIANT CONVECTIVE WATER 1",
    "   **   ~~~   ** ... Load met       = 731.48982 W.",
    "   **   ~~~   ** ... Load requested = 734.64649 W.",
    "   **   ~~~   ** ... Error          = 0.42968591 %.",
    "   **   ~~~   ** ... Tolerance      = 0.10000000 %.",
    "   **   ~~~   ** ... Error          = (Load met - Load requested) / MAXIMUM(Load requested, 100)",
    "   **   ~~~   ** ... Actuated Node Mass Flow Rate =1.591650527E-002 kg/s",
    "   **   ~~~   **  Environment=RUN PERIOD 1, at Simulation time=05/06 06:05 - 06:08",
    "   ** Warning ** ControlCompOutput: Maximum iterations exceeded for ZoneHVAC:Baseboard:RadiantConvective:Water = ZONE HVAC BASEBOARD RADIANT CONVECTIVE WATER 1",
    "   **   ~~~   ** ... Load met       = 731.50087 W.",
    "   **   ~~~   ** ... Load requested = 734.64649 W.",
    "   **   ~~~   ** ... Error          = 0.42818177 %.",
    "   **   ~~~   ** ... Tolerance      = 0.10000000 %.",
    "   **   ~~~   ** ... Error          = (Load met - Load requested) / MAXIMUM(Load requested, 100)",
    "   **   ~~~   ** ... Actuated Node Mass Flow Rate =1.591650527E-002 kg/s",
    "   **   ~~~   **  Environment=RUN PERIOD 1, at Simulation time=05/06 06:05 - 06:08",
    "   ** Warning ** ControlCompOutput: Maximum iterations exceeded for ZoneHVAC:Baseboard:RadiantConvective:Water = ZONE HVAC BASEBOARD RADIANT CONVECTIVE WATER 1",
    "   **   ~~~   ** ... Load met       = 192.09174 W.",
    "   **   ~~~   ** ... Load requested = 193.24848 W.",
    "   **   ~~~   ** ... Error          = 0.59857665 %.",
    "   **   ~~~   ** ... Tolerance      = 0.10000000 %.",
    "   **   ~~~   ** ... Error          = (Load met - Load requested) / MAXIMUM(Load requested, 100)",
    "   **   ~~~   ** ... Actuated Node Mass Flow Rate =3.979035242E-003 kg/s",
    "   **   ~~~   **  Environment=RUN PERIOD 1, at Simulation time=07/28 00:52 - 00:53",
    "   ** Warning ** ControlCompOutput: Maximum iterations exceeded for ZoneHVAC:Baseboard:RadiantConvective:Water = ZONE HVAC BASEBOARD RADIANT CONVECTIVE WATER 1",
    "   **   ~~~   ** ... Load met       = 192.09174 W.",
    "   **   ~~~   ** ... Load requested = 193.24848 W.",
    "   **   ~~~   ** ... Error          = 0.59857665 %.",
    "   **   ~~~   ** ... Tolerance      = 0.10000000 %.",
    "   **   ~~~   ** ... Error          = (Load met - Load requested) / MAXIMUM(Load requested, 100)",
    "   **   ~~~   ** ... Actuated Node Mass Flow Rate =3.979035242E-003 kg/s",
    "   **   ~~~   **  Environment=RUN PERIOD 1, at Simulation time=07/28 00:52 - 00:53",
    "   ** Warning ** ControlCompOutput: Maximum iterations exceeded for ZoneHVAC:Baseboard:RadiantConvective:Water = ZONE HVAC BASEBOARD RADIANT CONVECTIVE WATER 1",
    "   **   ~~~   ** ... Load met       = 374.30552 W.",
    "   **   ~~~   ** ... Load requested = 376.48888 W.",
    "   **   ~~~   ** ... Error          = 0.57992670 %.",
    "   **   ~~~   ** ... Tolerance      = 0.10000000 %.",
    "   **   ~~~   ** ... Error          = (Load met - Load requested) / MAXIMUM(Load requested, 100)",
    "   **   ~~~   ** ... Actuated Node Mass Flow Rate =7.958191918E-003 kg/s",
    "   **   ~~~   **  Environment=RUN PERIOD 1, at Simulation time=08/10 07:45 - 07:50",
    "   ** Warning ** ControlCompOutput: Maximum iterations exceeded for ZoneHVAC:Baseboard:RadiantConvective:Water = ZONE HVAC BASEBOARD RADIANT CONVECTIVE WATER 1",
    "   **   ~~~   ** ... Load met       = 374.30436 W.",
    "   **   ~~~   ** ... Load requested = 376.48888 W.",
    "   **   ~~~   ** ... Error          = 0.58023482 %.",
    "   **   ~~~   ** ... Tolerance      = 0.10000000 %.",
    "   **   ~~~   ** ... Error          = (Load met - Load requested) / MAXIMUM(Load requested, 100)",
    "   **   ~~~   ** ... Actuated Node Mass Flow Rate =7.958191918E-003 kg/s",
    "   **   ~~~   **  Environment=RUN PERIOD 1, at Simulation time=08/10 07:45 - 07:50",
    "   ** Warning ** ControlCompOutput: Maximum iterations exceeded for ZoneHVAC:Baseboard:RadiantConvective:Water = ZONE HVAC BASEBOARD RADIANT CONVECTIVE WATER 1",
    "   **   ~~~   ** ... Load met       = 9.44806 W.",
    "   **   ~~~   ** ... Load requested = 10.76746 W.",
    "   **   ~~~   ** ... Error          = 1.31940638 %.",
    "   **   ~~~   ** ... Tolerance      = 0.10000000 %.",
    "   **   ~~~   ** ... Error          = (Load met - Load requested) / MAXIMUM(Load requested, 100)",
    "   **   ~~~   ** ... Actuated Node Mass Flow Rate =4.972731503E-004 kg/s",
    "   **   ~~~   **  Environment=RUN PERIOD 1, at Simulation time=10/05 21:45 - 22:00",
    "   ** Warning ** ControlCompOutput: Maximum iterations exceeded for ZoneHVAC:Baseboard:RadiantConvective:Water = ZONE HVAC BASEBOARD RADIANT CONVECTIVE WATER 1",
    "   **   ~~~   ** ... Load met       = 1401.39609 W.",
    "   **   ~~~   ** ... Load requested = 1399.42602 W.",
    "   **   ~~~   ** ... Error          = 0.14077720 %.",
    "   **   ~~~   ** ... Tolerance      = 0.10000000 %.",
    "   **   ~~~   ** ... Error          = (Load met - Load requested) / MAXIMUM(Load requested, 100)",
    "   **   ~~~   ** ... Actuated Node Mass Flow Rate =2.984379651E-002 kg/s",
    "   **   ~~~   **  Environment=RUN PERIOD 1, at Simulation time=10/28 07:56 - 08:00",
    "   ** Warning ** ControlCompOutput: Maximum iterations exceeded for ZoneHVAC:Baseboard:RadiantConvective:Water = ZONE HVAC BASEBOARD RADIANT CONVECTIVE WATER 1",
    "   **   ~~~   ** ... Load met       = 1401.39864 W.",
    "   **   ~~~   ** ... Load requested = 1399.42602 W.",
    "   **   ~~~   ** ... Error          = 0.14095942 %.",
    "   **   ~~~   ** ... Tolerance      = 0.10000000 %.",
    "   **   ~~~   ** ... Error          = (Load met - Load requested) / MAXIMUM(Load requested, 100)",
    "   **   ~~~   ** ... Actuated Node Mass Flow Rate =2.984379651E-002 kg/s",
    "   **   ~~~   **  Environment=RUN PERIOD 1, at Simulation time=10/28 07:56 - 08:00",
    "   ************* Simulation Error Summary *************",
    "   ************* There are 1 unused schedules in input.",
    "   ************* There are 1 unused week schedules in input.",
    "   ************* There are 11 unused day schedules in input.",
    "   ************* Use Output:Diagnostics,DisplayUnusedSchedules; to see them.",
    "   *************",
    "   ************* ===== Recurring Error Summary =====",
    "   ************* The following recurring error messages occurred.",
    "   *************",
    "   *************  ** Warning ** ControlCompOutput: Maximum iterations error for ZoneHVAC:Baseboard:RadiantConvective:Water = ZONE HVAC BASEBOARD RADIANT CONVECTIVE WATER 1",
    "   *************  **   ~~~   **   This error occurred 50 total times;",
    "   *************  **   ~~~   **   during Warmup 0 times;",
    "   *************  **   ~~~   **   during Sizing 0 times.",
    "   *************  **   ~~~   **   Max=3.912176 %  Min=0.140777 %",
    "   *************",
    "   *************",
    "   ************* ===== Final Error Summary =====",
    "   ************* The following error categories occurred.  Consider correcting or noting.",
    "   ************* Nominally Unused Constructions",
    "   ************* ..The nominally unused constructions warning is provided to alert you to potential conditions that can cause",
    "   ************* ..extra time during simulation. Each construction is calculated by the algorithm indicated in the HeatBalanceAlgorithm",
    "   ************* ..object. You may remove the constructions indicated (when you use the DisplayExtraWarnings option).",
    "   *************",
    "   ************* EnergyPlus Warmup Error Summary. During Warmup: 0 Warning; 0 Severe Errors.",
    "   ************* EnergyPlus Sizing Error Summary. During Sizing: 15 Warning; 0 Severe Errors.",
    "   ************* EnergyPlus Completed Successfully-- 66 Warning; 0 Severe Errors; "
  ],
  "seed_file": "in.osm",
  "steps": [
    {
      "arguments": {
      },
      "measure_dir_name": "openstudio_results",
      "result": {
        "measure_class_name": "OpenStudioResults",
        "measure_display_name": "OpenStudio Results",
        "measure_name": "openstudio_results",
        "measure_taxonomy": "Reporting.QAQC",
        "measure_type": "ReportingMeasure",
        "measure_uid": "a25386cd-60e4-46bc-8b11-c755f379d916",
        "measure_version_id": "5b8e57e8-830a-43ae-90d4-a41d97698d95",
        "measure_version_modified": "20171219T161835Z",
        "measure_xml_checksum": "557BF06F",
        "stderr": "",
        "stdout": "",
        "step_errors": [

        ],
        "step_final_condition": "Generated report with 21 sections to ./report.html.",
        "step_info": [

        ],
        "step_initial_condition": "Gathering data from EnergyPlus SQL file and OSM model.",
        "step_result": "Success",
        "step_values": [
          {
            "name": "building_summary_section",
            "value": true
          },
          {
            "name": "annual_overview_section",
            "value": true
          },
          {
            "name": "monthly_overview_section",
            "value": true
          },
          {
            "name": "utility_bills_rates_section",
            "value": true
          },
          {
            "name": "envelope_section_section",
            "value": true
          },
          {
            "name": "space_type_breakdown_section",
            "value": true
          },
          {
            "name": "space_type_details_section",
            "value": true
          },
          {
            "name": "interior_lighting_section",
            "value": true
          },
          {
            "name": "plug_loads_section",
            "value": true
          },
          {
            "name": "exterior_light_section",
            "value": true
          },
          {
            "name": "water_use_section",
            "value": true
          },
          {
            "name": "hvac_load_profile",
            "value": true
          },
          {
            "name": "zone_condition_section",
            "value": true
          },
          {
            "name": "zone_summary_section",
            "value": true
          },
          {
            "name": "zone_equipment_detail_section",
            "value": true
          },
          {
            "name": "air_loops_detail_section",
            "value": true
          },
          {
            "name": "plant_loops_detail_section",
            "value": true
          },
          {
            "name": "outdoor_air_section",
            "value": true
          },
          {
            "name": "cost_summary_section",
            "value": true
          },
          {
            "name": "source_energy_section",
            "value": true
          },
          {
            "name": "schedules_overview_section",
            "value": true
          },
          {
            "display_name": "Building 1",
            "name": "building_name",
            "value": "building_name"
          },
          {
            "name": "total_site_energy",
            "units": "kBtu",
            "value": 4333817.96
          },
          {
            "name": "net_site_energy",
            "units": "kBtu",
            "value": 4333817.96
          },
          {
            "name": "total_building_area",
            "units": "ft^2",
            "value": 161458.66
          },
          {
            "name": "total_site_eui",
            "units": "kBtu/ft^2",
            "value": 26.84
          },
          {
            "name": "eui",
            "units": "kBtu/ft^2",
            "value": 26.84
          },
          {
            "name": "unmet_hours_during_heating",
            "units": "hr",
            "value": 5591.75
          },
          {
            "name": "unmet_hours_during_cooling",
            "units": "hr",
            "value": 4347
          },
          {
            "name": "unmet_hours_during_occupied_heating",
            "units": "hr",
            "value": 2620.75
          },
          {
            "name": "unmet_hours_during_occupied_cooling",
            "units": "hr",
            "value": 3429.75
          },
          {
            "name": "unmet_hours_tolerance_heating",
            "units": "F",
            "value": 0.36
          },
          {
            "name": "unmet_hours_tolerance_cooling",
            "units": "F",
            "value": 0.36
          },
          {
            "name": "end_use_heating",
            "units": "kBtu",
            "value": 874133.82
          },
          {
            "name": "end_use_cooling",
            "units": "kBtu",
            "value": 229656.09
          },
          {
            "name": "end_use_interior_lighting",
            "units": "kBtu",
            "value": 1566921.79
          },
          {
            "name": "end_use_exterior_lighting",
            "units": "kBtu",
            "value": 0
          },
          {
            "name": "end_use_interior_equipment",
            "units": "kBtu",
            "value": 1566921.79
          },
          {
            "name": "end_use_exterior_equipment",
            "units": "kBtu",
            "value": 0
          },
          {
            "name": "end_use_fans",
            "units": "kBtu",
            "value": 63361.57
          },
          {
            "name": "end_use_pumps",
            "units": "kBtu",
            "value": 32803.95
          },
          {
            "name": "end_use_heat_rejection",
            "units": "kBtu",
            "value": 0
          },
          {
            "name": "end_use_humidification",
            "units": "kBtu",
            "value": 0
          },
          {
            "name": "end_use_heat_recovery",
            "units": "kBtu",
            "value": 0
          },
          {
            "name": "end_use_water_systems",
            "units": "kBtu",
            "value": 0
          },
          {
            "name": "end_use_refrigeration",
            "units": "kBtu",
            "value": 0
          },
          {
            "name": "end_use_generators",
            "units": "kBtu",
            "value": 0
          },
          {
            "name": "fuel_electricity",
            "units": "kBtu",
            "value": 3659247.03
          },
          {
            "name": "fuel_natural_gas",
            "units": "kBtu",
            "value": 402016.63
          },
          {
            "name": "fuel_additional_fuel",
            "units": "kBtu",
            "value": 0
          },
          {
            "name": "fuel_district_cooling",
            "units": "kBtu",
            "value": 223201.45
          },
          {
            "name": "fuel_district_heating",
            "units": "kBtu",
            "value": 49352.84
          },
          {
            "name": "end_use_electricity_heating",
            "units": "kWh",
            "value": 123900
          },
          {
            "name": "end_use_electricity_cooling",
            "units": "kWh",
            "value": 1891.67
          },
          {
            "name": "end_use_electricity_interior_lighting",
            "units": "kWh",
            "value": 459219.44
          },
          {
            "name": "end_use_electricity_exterior_lighting",
            "units": "kWh",
            "value": 0
          },
          {
            "name": "end_use_electricity_interior_equipment",
            "units": "kWh",
            "value": 459219.44
          },
          {
            "name": "end_use_electricity_exterior_equipment",
            "units": "kWh",
            "value": 0
          },
          {
            "name": "end_use_electricity_fans",
            "units": "kWh",
            "value": 18569.44
          },
          {
            "name": "end_use_electricity_pumps",
            "units": "kWh",
            "value": 9613.89
          },
          {
            "name": "end_use_electricity_heat_rejection",
            "units": "kWh",
            "value": 0
          },
          {
            "name": "end_use_electricity_humidification",
            "units": "kWh",
            "value": 0
          },
          {
            "name": "end_use_electricity_heat_recovery",
            "units": "kWh",
            "value": 0
          },
          {
            "name": "end_use_electricity_water_systems",
            "units": "kWh",
            "value": 0
          },
          {
            "name": "end_use_electricity_refrigeration",
            "units": "kWh",
            "value": 0
          },
          {
            "name": "end_use_electricity_generators",
            "units": "kWh",
            "value": 0
          },
          {
            "name": "end_use_natural_gas_heating",
            "units": "therms",
            "value": 4020.94
          },
          {
            "name": "end_use_natural_gas_cooling",
            "units": "therms",
            "value": 0
          },
          {
            "name": "end_use_natural_gas_interior_lighting",
            "units": "therms",
            "value": 0
          },
          {
            "name": "end_use_natural_gas_exterior_lighting",
            "units": "therms",
            "value": 0
          },
          {
            "name": "end_use_natural_gas_interior_equipment",
            "units": "therms",
            "value": 0
          },
          {
            "name": "end_use_natural_gas_exterior_equipment",
            "units": "therms",
            "value": 0
          },
          {
            "name": "end_use_natural_gas_fans",
            "units": "therms",
            "value": 0
          },
          {
            "name": "end_use_natural_gas_pumps",
            "units": "therms",
            "value": 0
          },
          {
            "name": "end_use_natural_gas_heat_rejection",
            "units": "therms",
            "value": 0
          },
          {
            "name": "end_use_natural_gas_humidification",
            "units": "therms",
            "value": 0
          },
          {
            "name": "end_use_natural_gas_heat_recovery",
            "units": "therms",
            "value": 0
          },
          {
            "name": "end_use_natural_gas_water_systems",
            "units": "therms",
            "value": 0
          },
          {
            "name": "end_use_natural_gas_refrigeration",
            "units": "therms",
            "value": 0
          },
          {
            "name": "end_use_natural_gas_generators",
            "units": "therms",
            "value": 0
          },
          {
            "name": "electricity_heating_ip",
            "units": "kWh",
            "value": 123899.43
          },
          {
            "name": "electricity_cooling_ip",
            "units": "kWh",
            "value": 1892.93
          },
          {
            "name": "electricity_interior_lighting_ip",
            "units": "kWh",
            "value": 459220.83
          },
          {
            "name": "electricity_exterior_lighting_ip",
            "units": "kWh",
            "value": 0
          },
          {
            "name": "electricity_interior_equipment_ip",
            "units": "kWh",
            "value": 459220.83
          },
          {
            "name": "electricity_exterior_equipment_ip",
            "units": "kWh",
            "value": 0
          },
          {
            "name": "electricity_fans_ip",
            "units": "kWh",
            "value": 18569.92
          },
          {
            "name": "electricity_pumps_ip",
            "units": "kWh",
            "value": 9614.56
          },
          {
            "name": "electricity_heat_rejection_ip",
            "units": "kWh",
            "value": 0
          },
          {
            "name": "electricity_humidification_ip",
            "units": "kWh",
            "value": 0
          },
          {
            "name": "electricity_heat_recovery_ip",
            "units": "kWh",
            "value": 0
          },
          {
            "name": "electricity_water_systems_ip",
            "units": "kWh",
            "value": 0
          },
          {
            "name": "electricity_refrigeration_ip",
            "units": "kWh",
            "value": 0
          },
          {
            "name": "electricity_generators_ip",
            "units": "kWh",
            "value": 0
          },
          {
            "name": "electricity_ip",
            "units": "kWh",
            "value": 1072418.51
          },
          {
            "name": "natural_gas_heating_ip",
            "units": "MBtu",
            "value": 402.02
          },
          {
            "name": "natural_gas_cooling_ip",
            "units": "MBtu",
            "value": 0
          },
          {
            "name": "natural_gas_interior_lighting_ip",
            "units": "MBtu",
            "value": 0
          },
          {
            "name": "natural_gas_exterior_lighting_ip",
            "units": "MBtu",
            "value": 0
          },
          {
            "name": "natural_gas_interior_equipment_ip",
            "units": "MBtu",
            "value": 0
          },
          {
            "name": "natural_gas_exterior_equipment_ip",
            "units": "MBtu",
            "value": 0
          },
          {
            "name": "natural_gas_fans_ip",
            "units": "MBtu",
            "value": 0
          },
          {
            "name": "natural_gas_pumps_ip",
            "units": "MBtu",
            "value": 0
          },
          {
            "name": "natural_gas_heat_rejection_ip",
            "units": "MBtu",
            "value": 0
          },
          {
            "name": "natural_gas_humidification_ip",
            "units": "MBtu",
            "value": 0
          },
          {
            "name": "natural_gas_heat_recovery_ip",
            "units": "MBtu",
            "value": 0
          },
          {
            "name": "natural_gas_water_systems_ip",
            "units": "MBtu",
            "value": 0
          },
          {
            "name": "natural_gas_refrigeration_ip",
            "units": "MBtu",
            "value": 0
          },
          {
            "name": "natural_gas_generators_ip",
            "units": "MBtu",
            "value": 0
          },
          {
            "name": "natural_gas_ip",
            "units": "MBtu",
            "value": 402.02
          },
          {
            "name": "additional_fuel_heating_ip",
            "units": "MBtu",
            "value": 0
          },
          {
            "name": "additional_fuel_cooling_ip",
            "units": "MBtu",
            "value": 0
          },
          {
            "name": "additional_fuel_interior_lighting_ip",
            "units": "MBtu",
            "value": 0
          },
          {
            "name": "additional_fuel_exterior_lighting_ip",
            "units": "MBtu",
            "value": 0
          },
          {
            "name": "additional_fuel_interior_equipment_ip",
            "units": "MBtu",
            "value": 0
          },
          {
            "name": "additional_fuel_exterior_equipment_ip",
            "units": "MBtu",
            "value": 0
          },
          {
            "name": "additional_fuel_fans_ip",
            "units": "MBtu",
            "value": 0
          },
          {
            "name": "additional_fuel_pumps_ip",
            "units": "MBtu",
            "value": 0
          },
          {
            "name": "additional_fuel_heat_rejection_ip",
            "units": "MBtu",
            "value": 0
          },
          {
            "name": "additional_fuel_humidification_ip",
            "units": "MBtu",
            "value": 0
          },
          {
            "name": "additional_fuel_heat_recovery_ip",
            "units": "MBtu",
            "value": 0
          },
          {
            "name": "additional_fuel_water_systems_ip",
            "units": "MBtu",
            "value": 0
          },
          {
            "name": "additional_fuel_refrigeration_ip",
            "units": "MBtu",
            "value": 0
          },
          {
            "name": "additional_fuel_generators_ip",
            "units": "MBtu",
            "value": 0
          },
          {
            "name": "additional_fuel_ip",
            "units": "MBtu",
            "value": 0
          },
          {
            "name": "district_cooling_heating_ip",
            "units": "MBtu",
            "value": 0
          },
          {
            "name": "district_cooling_cooling_ip",
            "units": "MBtu",
            "value": 223.2
          },
          {
            "name": "district_cooling_interior_lighting_ip",
            "units": "MBtu",
            "value": 0
          },
          {
            "name": "district_cooling_exterior_lighting_ip",
            "units": "MBtu",
            "value": 0
          },
          {
            "name": "district_cooling_interior_equipment_ip",
            "units": "MBtu",
            "value": 0
          },
          {
            "name": "district_cooling_exterior_equipment_ip",
            "units": "MBtu",
            "value": 0
          },
          {
            "name": "district_cooling_fans_ip",
            "units": "MBtu",
            "value": 0
          },
          {
            "name": "district_cooling_pumps_ip",
            "units": "MBtu",
            "value": 0
          },
          {
            "name": "district_cooling_heat_rejection_ip",
            "units": "MBtu",
            "value": 0
          },
          {
            "name": "district_cooling_humidification_ip",
            "units": "MBtu",
            "value": 0
          },
          {
            "name": "district_cooling_heat_recovery_ip",
            "units": "MBtu",
            "value": 0
          },
          {
            "name": "district_cooling_water_systems_ip",
            "units": "MBtu",
            "value": 0
          },
          {
            "name": "district_cooling_refrigeration_ip",
            "units": "MBtu",
            "value": 0
          },
          {
            "name": "district_cooling_generators_ip",
            "units": "MBtu",
            "value": 0
          },
          {
            "name": "district_cooling_ip",
            "units": "MBtu",
            "value": 223.2
          },
          {
            "name": "district_heating_heating_ip",
            "units": "MBtu",
            "value": 49.36
          },
          {
            "name": "district_heating_cooling_ip",
            "units": "MBtu",
            "value": 0
          },
          {
            "name": "district_heating_interior_lighting_ip",
            "units": "MBtu",
            "value": 0
          },
          {
            "name": "district_heating_exterior_lighting_ip",
            "units": "MBtu",
            "value": 0
          },
          {
            "name": "district_heating_interior_equipment_ip",
            "units": "MBtu",
            "value": 0
          },
          {
            "name": "district_heating_exterior_equipment_ip",
            "units": "MBtu",
            "value": 0
          },
          {
            "name": "district_heating_fans_ip",
            "units": "MBtu",
            "value": 0
          },
          {
            "name": "district_heating_pumps_ip",
            "units": "MBtu",
            "value": 0
          },
          {
            "name": "district_heating_heat_rejection_ip",
            "units": "MBtu",
            "value": 0
          },
          {
            "name": "district_heating_humidification_ip",
            "units": "MBtu",
            "value": 0
          },
          {
            "name": "district_heating_heat_recovery_ip",
            "units": "MBtu",
            "value": 0
          },
          {
            "name": "district_heating_water_systems_ip",
            "units": "MBtu",
            "value": 0
          },
          {
            "name": "district_heating_refrigeration_ip",
            "units": "MBtu",
            "value": 0
          },
          {
            "name": "district_heating_generators_ip",
            "units": "MBtu",
            "value": 0
          },
          {
            "name": "district_heating_ip",
            "units": "MBtu",
            "value": 49.36
          },
          {
            "name": "water_heating_ip",
            "units": "MBtu",
            "value": 0
          },
          {
            "name": "water_cooling_ip",
            "units": "MBtu",
            "value": 0
          },
          {
            "name": "water_interior_lighting_ip",
            "units": "MBtu",
            "value": 0
          },
          {
            "name": "water_exterior_lighting_ip",
            "units": "MBtu",
            "value": 0
          },
          {
            "name": "water_interior_equipment_ip",
            "units": "MBtu",
            "value": 0
          },
          {
            "name": "water_exterior_equipment_ip",
            "units": "MBtu",
            "value": 0
          },
          {
            "name": "water_fans_ip",
            "units": "MBtu",
            "value": 0
          },
          {
            "name": "water_pumps_ip",
            "units": "MBtu",
            "value": 0
          },
          {
            "name": "water_heat_rejection_ip",
            "units": "MBtu",
            "value": 0
          },
          {
            "name": "water_humidification_ip",
            "units": "MBtu",
            "value": 0
          },
          {
            "name": "water_heat_recovery_ip",
            "units": "MBtu",
            "value": 0
          },
          {
            "name": "water_water_systems_ip",
            "units": "MBtu",
            "value": 0
          },
          {
            "name": "water_refrigeration_ip",
            "units": "MBtu",
            "value": 0
          },
          {
            "name": "water_generators_ip",
            "units": "MBtu",
            "value": 0
          },
          {
            "name": "water_ip",
            "units": "MBtu",
            "value": 0
          },
          {
            "name": "ashrae_189_1_2009_ext_roof_iead_climate_zone_2_5",
            "units": "ft^2",
            "value": 53819.55
          },
          {
            "name": "ashrae_189_1_2009_ext_wall_steel_frame_climate_zone_4_8",
            "units": "ft^2",
            "value": 23250.05
          },
          {
            "name": "ashrae_189_1_2009_ext_window_climate_zone_4_5",
            "units": "ft^2",
            "value": 15500.03
          },
          {
            "name": "gross_window_wall_ratio",
            "units": "%",
            "value": 40
          },
          {
            "name": "gross_window_wall_ratio_conditioned",
            "units": "%",
            "value": 40
          },
          {
            "name": "skylight_roof_ratio",
            "units": "%",
            "value": 0
          },
          {
            "name": "space_type_baseline_model_space_type",
            "units": "ft^2",
            "value": 161458.66
          },
          {
            "name": "exterior_lighting_total_power",
            "units": "W",
            "value": 0
          },
          {
            "name": "exterior_lighting_total_consumption",
            "units": "kWh",
            "value": 1270116.67
          },
          {
            "name": "inflation_approach",
            "value": "Constant Dollar"
          },
          {
            "name": "analysis_length",
            "units": "yrs",
            "value": 25
          },
          {
            "name": "annual_peak_electric_demand",
            "units": "kW",
            "value": 352.07
          },
          {
            "name": "first_year_capital_cost",
            "units": "$",
            "value": 0
          },
          {
            "name": "annual_utility_cost",
            "units": "$",
            "value": 0
          },
          {
            "name": "total_lifecycle_cost",
            "units": "$",
            "value": 0
          }
        ],
        "step_warnings": [

        ]
      }
    }
  ],
  "weather_file": "../../weatherdata/USA_IL_Chicago-OHare.Intl.AP.725300_TMY3.epw"
}