
OS:Version,
  {f20b3cca-1b50-4978-ab59-7000805b1593}, !- Handle
  3.5.0;                                  !- Version Identifier

OS:BuildingStory,
  {dbb97e80-13c9-4365-989b-1418901119b0}, !- Handle
  Story 1,                                !- Name
  0,                                      !- Nominal Z Coordinate {m}
  4,                                      !- Nominal Floor to Floor Height {m}
  ,                                       !- Default Construction Set Name
  ,                                       !- Default Schedule Set Name
  ;                                       !- Group Rendering Name

OS:Space,
  {68258464-601d-4157-bb9e-15f8847ea5e8}, !- Handle
  Story 1 Core Space,                     !- Name
  ,                                       !- Space Type Name
  ,                                       !- Default Construction Set Name
  ,                                       !- Default Schedule Set Name
  -0,                                     !- Direction of Relative North {deg}
  0,                                      !- X Origin {m}
  0,                                      !- Y Origin {m}
  0,                                      !- Z Origin {m}
  {dbb97e80-13c9-4365-989b-1418901119b0}, !- Building Story Name
  {dec8f2d9-fc17-4781-973e-6a0a98cc7875}; !- Thermal Zone Name

OS:Surface,
  {dd2205cb-6fec-4898-b253-76cf4ab39635}, !- Handle
  Story 1 Core Space Exterior Ground Floor, !- Name
  Floor,                                  !- Surface Type
  ,                                       !- Construction Name
  {68258464-601d-4157-bb9e-15f8847ea5e8}, !- Space Name
  Ground,                                 !- Outside Boundary Condition
  ,                                       !- Outside Boundary Condition Object
  NoSun,                                  !- Sun Exposure
  NoWind,                                 !- Wind Exposure
  ,                                       !- View Factor to Ground
  ,                                       !- Number of Vertices
  0, 0, 0,                                !- X,Y,Z Vertex 1 {m}
  0, 50, 0,                               !- X,Y,Z Vertex 2 {m}
  100, 50, 0,                             !- X,Y,Z Vertex 3 {m}
  100, 0, 0;                              !- X,Y,Z Vertex 4 {m}

OS:Surface,
  {c3f0c9f0-b76a-4be8-9bcc-e94ca3432649}, !- Handle
  Story 1 Core Space Exterior Wall 3,     !- Name
  Wall,                                   !- Surface Type
  ,                                       !- Construction Name
  {68258464-601d-4157-bb9e-15f8847ea5e8}, !- Space Name
  Outdoors,                               !- Outside Boundary Condition
  ,                                       !- Outside Boundary Condition Object
  SunExposed,                             !- Sun Exposure
  WindExposed,                            !- Wind Exposure
  ,                                       !- View Factor to Ground
  ,                                       !- Number of Vertices
  0, 50, 4,                               !- X,Y,Z Vertex 1 {m}
  0, 50, 0,                               !- X,Y,Z Vertex 2 {m}
  0, 0, 0,                                !- X,Y,Z Vertex 3 {m}
  0, 0, 4;                                !- X,Y,Z Vertex 4 {m}

OS:Surface,
  {7153d1a5-edb4-4be5-a41f-c0a6a924199f}, !- Handle
  Story 1 Core Space Exterior Wall 2,     !- Name
  Wall,                                   !- Surface Type
  ,                                       !- Construction Name
  {68258464-601d-4157-bb9e-15f8847ea5e8}, !- Space Name
  Outdoors,                               !- Outside Boundary Condition
  ,                                       !- Outside Boundary Condition Object
  SunExposed,                             !- Sun Exposure
  WindExposed,                            !- Wind Exposure
  ,                                       !- View Factor to Ground
  ,                                       !- Number of Vertices
  100, 50, 4,                             !- X,Y,Z Vertex 1 {m}
  100, 50, 0,                             !- X,Y,Z Vertex 2 {m}
  0, 50, 0,                               !- X,Y,Z Vertex 3 {m}
  0, 50, 4;                               !- X,Y,Z Vertex 4 {m}

OS:Surface,
  {7b277992-ae24-47d4-a45f-64a35ed7e84b}, !- Handle
  Story 1 Core Space Exterior Wall 1,     !- Name
  Wall,                                   !- Surface Type
  ,                                       !- Construction Name
  {68258464-601d-4157-bb9e-15f8847ea5e8}, !- Space Name
  Outdoors,                               !- Outside Boundary Condition
  ,                                       !- Outside Boundary Condition Object
  SunExposed,                             !- Sun Exposure
  WindExposed,                            !- Wind Exposure
  ,                                       !- View Factor to Ground
  ,                                       !- Number of Vertices
  100, 0, 4,                              !- X,Y,Z Vertex 1 {m}
  100, 0, 0,                              !- X,Y,Z Vertex 2 {m}
  100, 50, 0,                             !- X,Y,Z Vertex 3 {m}
  100, 50, 4;                             !- X,Y,Z Vertex 4 {m}

OS:Surface,
  {f35f62c2-0eea-4a17-b4da-1c5367851f1f}, !- Handle
  Story 1 Core Space Exterior Wall,       !- Name
  Wall,                                   !- Surface Type
  ,                                       !- Construction Name
  {68258464-601d-4157-bb9e-15f8847ea5e8}, !- Space Name
  Outdoors,                               !- Outside Boundary Condition
  ,                                       !- Outside Boundary Condition Object
  SunExposed,                             !- Sun Exposure
  WindExposed,                            !- Wind Exposure
  ,                                       !- View Factor to Ground
  ,                                       !- Number of Vertices
  0, 0, 4,                                !- X,Y,Z Vertex 1 {m}
  0, 0, 0,                                !- X,Y,Z Vertex 2 {m}
  100, 0, 0,                              !- X,Y,Z Vertex 3 {m}
  100, 0, 4;                              !- X,Y,Z Vertex 4 {m}

OS:Surface,
  {97e46893-fca5-4ecc-914f-e4963e4e1613}, !- Handle
  Story 1 Core Space Exterior Roof,       !- Name
  RoofCeiling,                            !- Surface Type
  ,                                       !- Construction Name
  {68258464-601d-4157-bb9e-15f8847ea5e8}, !- Space Name
  Outdoors,                               !- Outside Boundary Condition
  ,                                       !- Outside Boundary Condition Object
  SunExposed,                             !- Sun Exposure
  WindExposed,                            !- Wind Exposure
  ,                                       !- View Factor to Ground
  ,                                       !- Number of Vertices
  100, 0, 4,                              !- X,Y,Z Vertex 1 {m}
  100, 50, 4,                             !- X,Y,Z Vertex 2 {m}
  0, 50, 4,                               !- X,Y,Z Vertex 3 {m}
  0, 0, 4;                                !- X,Y,Z Vertex 4 {m}

OS:ThermalZone,
  {dec8f2d9-fc17-4781-973e-6a0a98cc7875}, !- Handle
  Story 1 Core Thermal Zone,              !- Name
  ,                                       !- Multiplier
  ,                                       !- Ceiling Height {m}
  ,                                       !- Volume {m3}
  ,                                       !- Floor Area {m2}
  ,                                       !- Zone Inside Convection Algorithm
  ,                                       !- Zone Outside Convection Algorithm
  ,                                       !- Zone Conditioning Equipment List Name
  {a08a5e68-ea35-4e22-94a8-36eaaa513789}, !- Zone Air Inlet Port List
  {14e4d9ee-2cab-4fe7-b778-1e5bfc29bf75}, !- Zone Air Exhaust Port List
  {8433592b-3b8e-4f35-86d1-3afc0ed0fa34}, !- Zone Air Node Name
  {5d22134a-507a-4da6-980b-3ebbfce4055a}, !- Zone Return Air Port List
  ,                                       !- Primary Daylighting Control Name
  ,                                       !- Fraction of Zone Controlled by Primary Daylighting Control
  ,                                       !- Secondary Daylighting Control Name
  ,                                       !- Fraction of Zone Controlled by Secondary Daylighting Control
  ,                                       !- Illuminance Map Name
  ,                                       !- Group Rendering Name
  {c2ebfd12-e679-452a-87f9-446194d93c21}, !- Thermostat Name
  Yes;                                    !- Use Ideal Air Loads

OS:Node,
  {c6534ee9-6b21-400a-9df0-9a418b34e13d}, !- Handle
  Node 1,                                 !- Name
  {8433592b-3b8e-4f35-86d1-3afc0ed0fa34}, !- Inlet Port
  ;                                       !- Outlet Port

OS:Connection,
  {8433592b-3b8e-4f35-86d1-3afc0ed0fa34}, !- Handle
  {dec8f2d9-fc17-4781-973e-6a0a98cc7875}, !- Source Object
  11,                                     !- Outlet Port
  {c6534ee9-6b21-400a-9df0-9a418b34e13d}, !- Target Object
  2;                                      !- Inlet Port

OS:PortList,
  {a08a5e68-ea35-4e22-94a8-36eaaa513789}, !- Handle
  {dec8f2d9-fc17-4781-973e-6a0a98cc7875}; !- HVAC Component

OS:PortList,
  {14e4d9ee-2cab-4fe7-b778-1e5bfc29bf75}, !- Handle
  {dec8f2d9-fc17-4781-973e-6a0a98cc7875}; !- HVAC Component

OS:PortList,
  {5d22134a-507a-4da6-980b-3ebbfce4055a}, !- Handle
  {dec8f2d9-fc17-4781-973e-6a0a98cc7875}; !- HVAC Component

OS:Sizing:Zone,
  {5804b48f-9ff2-4d7e-868e-c711729872bd}, !- Handle
  {dec8f2d9-fc17-4781-973e-6a0a98cc7875}, !- Zone or ZoneList Name
  SupplyAirTemperature,                   !- Zone Cooling Design Supply Air Temperature Input Method
  14,                                     !- Zone Cooling Design Supply Air Temperature {C}
  11.11,                                  !- Zone Cooling Design Supply Air Temperature Difference {deltaC}
  SupplyAirTemperature,                   !- Zone Heating Design Supply Air Temperature Input Method
  40,                                     !- Zone Heating Design Supply Air Temperature {C}
  11.11,                                  !- Zone Heating Design Supply Air Temperature Difference {deltaC}
  0.0085,                                 !- Zone Cooling Design Supply Air Humidity Ratio {kg-H2O/kg-air}
  0.008,                                  !- Zone Heating Design Supply Air Humidity Ratio {kg-H2O/kg-air}
  ,                                       !- Zone Heating Sizing Factor
  ,                                       !- Zone Cooling Sizing Factor
  DesignDay,                              !- Cooling Design Air Flow Method
  ,                                       !- Cooling Design Air Flow Rate {m3/s}
  ,                                       !- Cooling Minimum Air Flow per Zone Floor Area {m3/s-m2}
  ,                                       !- Cooling Minimum Air Flow {m3/s}
  ,                                       !- Cooling Minimum Air Flow Fraction
  DesignDay,                              !- Heating Design Air Flow Method
  ,                                       !- Heating Design Air Flow Rate {m3/s}
  ,                                       !- Heating Maximum Air Flow per Zone Floor Area {m3/s-m2}
  ,                                       !- Heating Maximum Air Flow {m3/s}
  ,                                       !- Heating Maximum Air Flow Fraction
  No,                                     !- Account for Dedicated Outdoor Air System
  NeutralSupplyAir,                       !- Dedicated Outdoor Air System Control Strategy
  autosize,                               !- Dedicated Outdoor Air Low Setpoint Temperature for Design {C}
  autosize,                               !- Dedicated Outdoor Air High Setpoint Temperature for Design {C}
  Sensible Load Only No Latent Load,      !- Zone Load Sizing Method
  HumidityRatioDifference,                !- Zone Latent Cooling Design Supply Air Humidity Ratio Input Method
  ,                                       !- Zone Dehumidification Design Supply Air Humidity Ratio {kgWater/kgDryAir}
  0.005,                                  !- Zone Cooling Design Supply Air Humidity Ratio Difference {kgWater/kgDryAir}
  HumidityRatioDifference,                !- Zone Latent Heating Design Supply Air Humidity Ratio Input Method
  ,                                       !- Zone Humidification Design Supply Air Humidity Ratio {kgWater/kgDryAir}
  0.005;                                  !- Zone Humidification Design Supply Air Humidity Ratio Difference {kgWater/kgDryAir}

OS:ZoneHVAC:EquipmentList,
  {9300f390-5e73-48bd-840d-9201f7dbe465}, !- Handle
  Zone HVAC Equipment List 1,             !- Name
  {dec8f2d9-fc17-4781-973e-6a0a98cc7875}; !- Thermal Zone

OS:SubSurface,
  {ed999838-6dab-497f-916d-be75c2a61fbf}, !- Handle
  Story 1 Core Space Exterior Wall Window, !- Name
  FixedWindow,                            !- Sub Surface Type
  ,                                       !- Construction Name
  {f35f62c2-0eea-4a17-b4da-1c5367851f1f}, !- Surface Name
  ,                                       !- Outside Boundary Condition Object
  ,                                       !- View Factor to Ground
  ,                                       !- Frame and Divider Name
  ,                                       !- Multiplier
  ,                                       !- Number of Vertices
  0.0254, 0, 2.60081321311226,            !- X,Y,Z Vertex 1 {m}
  0.0254, 0, 1,                           !- X,Y,Z Vertex 2 {m}
  99.9746, 0, 1,                          !- X,Y,Z Vertex 3 {m}
  99.9746, 0, 2.60081321311226;           !- X,Y,Z Vertex 4 {m}

OS:SubSurface,
  {1b30b79f-b019-44dd-8449-5cc50951729c}, !- Handle
  Story 1 Core Space Exterior Wall 1 Window, !- Name
  FixedWindow,                            !- Sub Surface Type
  ,                                       !- Construction Name
  {7b277992-ae24-47d4-a45f-64a35ed7e84b}, !- Surface Name
  ,                                       !- Outside Boundary Condition Object
  ,                                       !- View Factor to Ground
  ,                                       !- Frame and Divider Name
  ,                                       !- Multiplier
  ,                                       !- Number of Vertices
  100, 0.0254, 2.60162725328934,          !- X,Y,Z Vertex 1 {m}
  100, 0.0254, 1,                         !- X,Y,Z Vertex 2 {m}
  100, 49.9746, 1,                        !- X,Y,Z Vertex 3 {m}
  100, 49.9746, 2.60162725328934;         !- X,Y,Z Vertex 4 {m}

OS:SubSurface,
  {00425346-c218-435c-be78-96d3dc8c4c85}, !- Handle
  Story 1 Core Space Exterior Wall 2 Window, !- Name
  FixedWindow,                            !- Sub Surface Type
  ,                                       !- Construction Name
  {7153d1a5-edb4-4be5-a41f-c0a6a924199f}, !- Surface Name
  ,                                       !- Outside Boundary Condition Object
  ,                                       !- View Factor to Ground
  ,                                       !- Frame and Divider Name
  ,                                       !- Multiplier
  ,                                       !- Number of Vertices
  99.9746, 50, 2.60081321311226,          !- X,Y,Z Vertex 1 {m}
  99.9746, 50, 1,                         !- X,Y,Z Vertex 2 {m}
  0.0253999999999905, 50, 1,              !- X,Y,Z Vertex 3 {m}
  0.0253999999999905, 50, 2.60081321311226; !- X,Y,Z Vertex 4 {m}

OS:SubSurface,
  {188f04fa-d385-435d-9b39-61973ea0722e}, !- Handle
  Story 1 Core Space Exterior Wall 3 Window, !- Name
  FixedWindow,                            !- Sub Surface Type
  ,                                       !- Construction Name
  {c3f0c9f0-b76a-4be8-9bcc-e94ca3432649}, !- Surface Name
  ,                                       !- Outside Boundary Condition Object
  ,                                       !- View Factor to Ground
  ,                                       !- Frame and Divider Name
  ,                                       !- Multiplier
  ,                                       !- Number of Vertices
  0, 49.9746, 2.60162725328934,           !- X,Y,Z Vertex 1 {m}
  0, 49.9746, 1,                          !- X,Y,Z Vertex 2 {m}
  0, 0.0254000000000048, 1,               !- X,Y,Z Vertex 3 {m}
  0, 0.0254000000000048, 2.60162725328934; !- X,Y,Z Vertex 4 {m}

OS:Schedule:Ruleset,
  {752ca290-05c5-4d84-85f2-1fadaf4b3a88}, !- Handle
  Cooling Sch,                            !- Name
  {807ec2eb-1214-403d-8a5f-e88c1c2c82ae}, !- Schedule Type Limits Name
  {27e2c4d4-71b4-4d27-aff0-2d30efef56c1}; !- Default Day Schedule Name

OS:Schedule:Day,
  {27e2c4d4-71b4-4d27-aff0-2d30efef56c1}, !- Handle
  Cooling Sch Default,                    !- Name
  {807ec2eb-1214-403d-8a5f-e88c1c2c82ae}, !- Schedule Type Limits Name
  ,                                       !- Interpolate to Timestep
  24,                                     !- Hour 1
  0,                                      !- Minute 1
  26;                                     !- Value Until Time 1

OS:Schedule:Ruleset,
  {201b79ba-928f-4449-bb18-44324f42416e}, !- Handle
  Heating Sch,                            !- Name
  {807ec2eb-1214-403d-8a5f-e88c1c2c82ae}, !- Schedule Type Limits Name
  {6af76613-b758-4675-9f55-2be677b8bb51}; !- Default Day Schedule Name

OS:Schedule:Day,
  {6af76613-b758-4675-9f55-2be677b8bb51}, !- Handle
  Heating Sch Default,                    !- Name
  {807ec2eb-1214-403d-8a5f-e88c1c2c82ae}, !- Schedule Type Limits Name
  ,                                       !- Interpolate to Timestep
  24,                                     !- Hour 1
  0,                                      !- Minute 1
  19;                                     !- Value Until Time 1

OS:ThermostatSetpoint:DualSetpoint,
  {c2ebfd12-e679-452a-87f9-446194d93c21}, !- Handle
  Thermostat Setpoint Dual Setpoint 1,    !- Name
  {201b79ba-928f-4449-bb18-44324f42416e}, !- Heating Setpoint Temperature Schedule Name
  {752ca290-05c5-4d84-85f2-1fadaf4b3a88}; !- Cooling Setpoint Temperature Schedule Name

OS:ScheduleTypeLimits,
  {807ec2eb-1214-403d-8a5f-e88c1c2c82ae}, !- Handle
  Temperature,                            !- Name
  ,                                       !- Lower Limit Value
  ,                                       !- Upper Limit Value
  Continuous,                             !- Numeric Type
  Temperature;                            !- Unit Type

OS:DefaultConstructionSet,
  {7ae2faab-be98-43ec-9c48-a04dedef98c4}, !- Handle
  ASHRAE_189.1-2009_ClimateZone 4-5 (mdoff)_ConstSet, !- Name
  {e46a44ef-41ef-47ce-a9d2-0fe047384b2e}, !- Default Exterior Surface Constructions Name
  {978d0fdf-be2f-498e-bab9-99ec6db85ec4}, !- Default Interior Surface Constructions Name
  {49559000-cfd9-472f-bba5-28a2cccbe835}, !- Default Ground Contact Surface Constructions Name
  {73feb3b9-0513-4c87-a66d-9d449f7122f5}, !- Default Exterior SubSurface Constructions Name
  {3487beec-523c-44a7-9fb3-18c13b37929c}, !- Default Interior SubSurface Constructions Name
  {916ea847-4f95-4f8b-a854-081c452ecfda}, !- Interior Partition Construction Name
  ,                                       !- Space Shading Construction Name
  ,                                       !- Building Shading Construction Name
  ,                                       !- Site Shading Construction Name
  ;                                       !- Adiabatic Surface Construction Name

OS:DefaultSurfaceConstructions,
  {e46a44ef-41ef-47ce-a9d2-0fe047384b2e}, !- Handle
  ASHRAE_189.1-2009_ClimateZone 4-5 (mdoff)_Exterior_DefSurfCons, !- Name
  {3766a599-dea9-41f5-be9d-0058aaf09a63}, !- Floor Construction Name
  {9b3b72a6-0729-4b44-b9f5-bdc1270e3782}, !- Wall Construction Name
  {dd136de3-f75e-454a-90e9-df47edda412d}; !- Roof Ceiling Construction Name

OS:DefaultSurfaceConstructions,
  {978d0fdf-be2f-498e-bab9-99ec6db85ec4}, !- Handle
  000_Interior_DefSurfCons,               !- Name
  {c1110f2d-22ac-4ddb-855d-5214e270e82a}, !- Floor Construction Name
  {33b52f7a-ef59-4412-9496-d7153db267f0}, !- Wall Construction Name
  {49a4ed39-2000-401d-b226-1c6ca45196ad}; !- Roof Ceiling Construction Name

OS:DefaultSurfaceConstructions,
  {49559000-cfd9-472f-bba5-28a2cccbe835}, !- Handle
  000_Ground_DefSurfCons,                 !- Name
  {3766a599-dea9-41f5-be9d-0058aaf09a63}, !- Floor Construction Name
  {3766a599-dea9-41f5-be9d-0058aaf09a63}, !- Wall Construction Name
  {3766a599-dea9-41f5-be9d-0058aaf09a63}; !- Roof Ceiling Construction Name

OS:DefaultSubSurfaceConstructions,
  {73feb3b9-0513-4c87-a66d-9d449f7122f5}, !- Handle
  ASHRAE_189.1-2009_ClimateZone 4-5 (mdoff)_Exterior_DefSubCons, !- Name
  {e823be43-fe04-4107-bd14-e6d419e9e9c2}, !- Fixed Window Construction Name
  {e823be43-fe04-4107-bd14-e6d419e9e9c2}, !- Operable Window Construction Name
  {68249cc7-28a9-4874-ad1c-03b590b406eb}, !- Door Construction Name
  {4848a637-65b3-4ab5-b503-eba80d3e1360}, !- Glass Door Construction Name
  ,                                       !- Overhead Door Construction Name
  {4848a637-65b3-4ab5-b503-eba80d3e1360}, !- Skylight Construction Name
  {7b0995a1-b30a-4df2-ac69-aa92c764c38b}, !- Tubular Daylight Dome Construction Name
  {7b0995a1-b30a-4df2-ac69-aa92c764c38b}; !- Tubular Daylight Diffuser Construction Name

OS:DefaultSubSurfaceConstructions,
  {3487beec-523c-44a7-9fb3-18c13b37929c}, !- Handle
  000_Interior_DefSubCons,                !- Name
  {7b0995a1-b30a-4df2-ac69-aa92c764c38b}, !- Fixed Window Construction Name
  {7b0995a1-b30a-4df2-ac69-aa92c764c38b}, !- Operable Window Construction Name
  {02afc5ff-aee0-4c11-939c-c11ad87594ae}, !- Door Construction Name
  {4848a637-65b3-4ab5-b503-eba80d3e1360}, !- Glass Door Construction Name
  ,                                       !- Overhead Door Construction Name
  {4848a637-65b3-4ab5-b503-eba80d3e1360}, !- Skylight Construction Name
  {7b0995a1-b30a-4df2-ac69-aa92c764c38b}, !- Tubular Daylight Dome Construction Name
  {7b0995a1-b30a-4df2-ac69-aa92c764c38b}; !- Tubular Daylight Diffuser Construction Name

OS:Construction,
  {916ea847-4f95-4f8b-a854-081c452ecfda}, !- Handle
  000_Interior Partition,                 !- Name
  ,                                       !- Surface Rendering Name
  {ffb95e6e-ff76-47de-bd72-f957f08d6415}; !- Layer 1

OS:Construction,
  {3766a599-dea9-41f5-be9d-0058aaf09a63}, !- Handle
  000_ExtSlabCarpet_4in_ClimateZone 1-8,  !- Name
  ,                                       !- Surface Rendering Name
  {c4c5baa3-827b-489b-93b6-b40b1f05e521}, !- Layer 1
  {a26830fb-44a6-4984-9490-e93865e63e03}; !- Layer 2

OS:Construction,
  {9b3b72a6-0729-4b44-b9f5-bdc1270e3782}, !- Handle
  ASHRAE_189.1-2009_ExtWall_SteelFrame_ClimateZone 4-8, !- Name
  ,                                       !- Surface Rendering Name
  {5c5101dd-de9f-4b59-ac98-c5381898513a}, !- Layer 1
  {0b4a8a41-9920-475b-a3ca-5a8c53c52090}, !- Layer 2
  {f93cd017-0607-4158-b11b-b9e1fda79e13}; !- Layer 3

OS:Construction,
  {dd136de3-f75e-454a-90e9-df47edda412d}, !- Handle
  ASHRAE_189.1-2009_ExtRoof_IEAD_ClimateZone 2-5, !- Name
  ,                                       !- Surface Rendering Name
  {e9663e42-a63e-4af6-b5e8-59b672a75da3}, !- Layer 1
  {a0bfece5-500e-4ca9-ae8a-7042f7bbfbd2}, !- Layer 2
  {d7750697-b8aa-433a-bd33-8047522fdcf6}; !- Layer 3

OS:Construction,
  {c1110f2d-22ac-4ddb-855d-5214e270e82a}, !- Handle
  000_Interior Floor,                     !- Name
  ,                                       !- Surface Rendering Name
  {439c9014-8a08-4be7-a4f0-7a6cc542b78c}, !- Layer 1
  {8d62377b-957a-4e4a-8ea6-c7d20f9b29c4}, !- Layer 2
  {3256ea4c-dbc6-4b1b-933f-c35d1905a8da}; !- Layer 3

OS:Construction,
  {33b52f7a-ef59-4412-9496-d7153db267f0}, !- Handle
  000_Interior Wall,                      !- Name
  ,                                       !- Surface Rendering Name
  {65898fae-7f5a-46fc-b99d-1a4f335bb773}, !- Layer 1
  {9fff2667-a1ea-441d-acca-8142567808a3}, !- Layer 2
  {65898fae-7f5a-46fc-b99d-1a4f335bb773}; !- Layer 3

OS:Construction,
  {49a4ed39-2000-401d-b226-1c6ca45196ad}, !- Handle
  000_Interior Ceiling,                   !- Name
  ,                                       !- Surface Rendering Name
  {3256ea4c-dbc6-4b1b-933f-c35d1905a8da}, !- Layer 1
  {8d62377b-957a-4e4a-8ea6-c7d20f9b29c4}, !- Layer 2
  {439c9014-8a08-4be7-a4f0-7a6cc542b78c}; !- Layer 3

OS:Construction,
  {e823be43-fe04-4107-bd14-e6d419e9e9c2}, !- Handle
  ASHRAE_189.1-2009_ExtWindow_ClimateZone 4-5, !- Name
  ,                                       !- Surface Rendering Name
  {10af9065-4043-4a3d-8cd7-78a8f60242e9}; !- Layer 1

OS:Construction,
  {68249cc7-28a9-4874-ad1c-03b590b406eb}, !- Handle
  000_Exterior Door,                      !- Name
  ,                                       !- Surface Rendering Name
  {906c100b-59d9-49b8-8abf-af2ab90535f6}, !- Layer 1
  {831edb6d-020c-43c1-9cfa-019bb3381371}; !- Layer 2

OS:Construction,
  {4848a637-65b3-4ab5-b503-eba80d3e1360}, !- Handle
  000_Exterior Window,                    !- Name
  ,                                       !- Surface Rendering Name
  {6ae7b1bb-3e2c-4d84-90c4-d466ecaad640}, !- Layer 1
  {7a31b5b7-1588-4f41-a53b-01bb47fb9fad}, !- Layer 2
  {6ae7b1bb-3e2c-4d84-90c4-d466ecaad640}; !- Layer 3

OS:Construction,
  {7b0995a1-b30a-4df2-ac69-aa92c764c38b}, !- Handle
  000_Interior Window,                    !- Name
  ,                                       !- Surface Rendering Name
  {6ae7b1bb-3e2c-4d84-90c4-d466ecaad640}; !- Layer 1

OS:Construction,
  {02afc5ff-aee0-4c11-939c-c11ad87594ae}, !- Handle
  000_Interior Door,                      !- Name
  ,                                       !- Surface Rendering Name
  {ffb95e6e-ff76-47de-bd72-f957f08d6415}; !- Layer 1

OS:Material,
  {ffb95e6e-ff76-47de-bd72-f957f08d6415}, !- Handle
  000_G05 25mm wood,                      !- Name
  MediumSmooth,                           !- Roughness
  0.025399999999999999,                   !- Thickness {m}
  0.14999999999999999,                    !- Conductivity {W/m-K}
  608,                                    !- Density {kg/m3}
  1630;                                   !- Specific Heat {J/kg-K}

OS:Material,
  {c4c5baa3-827b-489b-93b6-b40b1f05e521}, !- Handle
  MAT-CC05 4 HW CONCRETE,                 !- Name
  Rough,                                  !- Roughness
  0.1016,                                 !- Thickness {m}
  1.3109999999999999,                     !- Conductivity {W/m-K}
  2240,                                   !- Density {kg/m3}
  836.8,                                  !- Specific Heat {J/kg-K}
  0.90000000000000002,                    !- Thermal Absorptance
  0.69999999999999996,                    !- Solar Absorptance
  0.69999999999999996;                    !- Visible Absorptance

OS:Material:NoMass,
  {a26830fb-44a6-4984-9490-e93865e63e03}, !- Handle
  CP02 CARPET PAD,                        !- Name
  VeryRough,                              !- Roughness
  0.2165,                                 !- Thermal Resistance {m2-K/W}
  0.90000000000000002,                    !- Thermal Absorptance
  0.69999999999999996,                    !- Solar Absorptance
  0.80000000000000004;                    !- Visible Absorptance

OS:Material:NoMass,
  {5c5101dd-de9f-4b59-ac98-c5381898513a}, !- Handle
  MAT-SHEATH,                             !- Name
  Rough,                                  !- Roughness
  0.36259999999999998,                    !- Thermal Resistance {m2-K/W}
  0.90000000000000002,                    !- Thermal Absorptance
  0.69999999999999996,                    !- Solar Absorptance
  0.69999999999999996;                    !- Visible Absorptance

OS:Material,
  {0b4a8a41-9920-475b-a3ca-5a8c53c52090}, !- Handle
  Wall Insulation [39],                   !- Name
  MediumRough,                            !- Roughness
  0.11840000000000001,                    !- Thickness {m}
  0.044999999999999998,                   !- Conductivity {W/m-K}
  265,                                    !- Density {kg/m3}
  836.8,                                  !- Specific Heat {J/kg-K}
  0.90000000000000002,                    !- Thermal Absorptance
  0.69999999999999996,                    !- Solar Absorptance
  0.69999999999999996;                    !- Visible Absorptance

OS:Material,
  {f93cd017-0607-4158-b11b-b9e1fda79e13}, !- Handle
  1/2IN Gypsum,                           !- Name
  Smooth,                                 !- Roughness
  0.012699999999999999,                   !- Thickness {m}
  0.16,                                   !- Conductivity {W/m-K}
  784.89999999999998,                     !- Density {kg/m3}
  830,                                    !- Specific Heat {J/kg-K}
  0.90000000000000002,                    !- Thermal Absorptance
  0.92000000000000004,                    !- Solar Absorptance
  0.92000000000000004;                    !- Visible Absorptance

OS:Material,
  {e9663e42-a63e-4af6-b5e8-59b672a75da3}, !- Handle
  Roof Membrane,                          !- Name
  VeryRough,                              !- Roughness
  0.0094999999999999998,                  !- Thickness {m}
  0.16,                                   !- Conductivity {W/m-K}
  1121.29,                                !- Density {kg/m3}
  1460,                                   !- Specific Heat {J/kg-K}
  0.90000000000000002,                    !- Thermal Absorptance
  0.69999999999999996,                    !- Solar Absorptance
  0.69999999999999996;                    !- Visible Absorptance

OS:Material,
  {a0bfece5-500e-4ca9-ae8a-7042f7bbfbd2}, !- Handle
  Roof Insulation [21],                   !- Name
  MediumRough,                            !- Roughness
  0.21049999999999999,                    !- Thickness {m}
  0.049000000000000002,                   !- Conductivity {W/m-K}
  265,                                    !- Density {kg/m3}
  836.8,                                  !- Specific Heat {J/kg-K}
  0.90000000000000002,                    !- Thermal Absorptance
  0.69999999999999996,                    !- Solar Absorptance
  0.69999999999999996;                    !- Visible Absorptance

OS:Material,
  {d7750697-b8aa-433a-bd33-8047522fdcf6}, !- Handle
  Metal Decking,                          !- Name
  MediumSmooth,                           !- Roughness
  0.0015,                                 !- Thickness {m}
  45.006,                                 !- Conductivity {W/m-K}
  7680,                                   !- Density {kg/m3}
  418.4,                                  !- Specific Heat {J/kg-K}
  0.90000000000000002,                    !- Thermal Absorptance
  0.69999999999999996,                    !- Solar Absorptance
  0.29999999999999999;                    !- Visible Absorptance

OS:Material,
  {439c9014-8a08-4be7-a4f0-7a6cc542b78c}, !- Handle
  000_F16 Acoustic tile,                  !- Name
  MediumSmooth,                           !- Roughness
  0.019099999999999999,                   !- Thickness {m}
  0.059999999999999998,                   !- Conductivity {W/m-K}
  368,                                    !- Density {kg/m3}
  590;                                    !- Specific Heat {J/kg-K}

OS:Material:AirGap,
  {8d62377b-957a-4e4a-8ea6-c7d20f9b29c4}, !- Handle
  000_F05 Ceiling air space resistance,   !- Name
  0.17999999999999999;                    !- Thermal Resistance {m2-K/W}

OS:Material,
  {3256ea4c-dbc6-4b1b-933f-c35d1905a8da}, !- Handle
  000_M11 100mm lightweight concrete,     !- Name
  MediumRough,                            !- Roughness
  0.1016,                                 !- Thickness {m}
  0.53000000000000003,                    !- Conductivity {W/m-K}
  1280,                                   !- Density {kg/m3}
  840;                                    !- Specific Heat {J/kg-K}

OS:Material,
  {65898fae-7f5a-46fc-b99d-1a4f335bb773}, !- Handle
  000_G01a 19mm gypsum board,             !- Name
  MediumSmooth,                           !- Roughness
  0.019,                                  !- Thickness {m}
  0.16,                                   !- Conductivity {W/m-K}
  800,                                    !- Density {kg/m3}
  1090;                                   !- Specific Heat {J/kg-K}

OS:Material:AirGap,
  {9fff2667-a1ea-441d-acca-8142567808a3}, !- Handle
  000_F04 Wall air space resistance,      !- Name
  0.14999999999999999;                    !- Thermal Resistance {m2-K/W}

OS:WindowMaterial:Glazing,
  {10af9065-4043-4a3d-8cd7-78a8f60242e9}, !- Handle
  Theoretical Glass [207],                !- Name
  SpectralAverage,                        !- Optical Data Type
  ,                                       !- Window Glass Spectral Data Set Name
  0.0030000000000000001,                  !- Thickness {m}
  0.33110000000000001,                    !- Solar Transmittance at Normal Incidence
  0.61890000000000001,                    !- Front Side Solar Reflectance at Normal Incidence
  0.61890000000000001,                    !- Back Side Solar Reflectance at Normal Incidence
  0.44,                                   !- Visible Transmittance at Normal Incidence
  0.51000000000000001,                    !- Front Side Visible Reflectance at Normal Incidence
  0.51000000000000001,                    !- Back Side Visible Reflectance at Normal Incidence
  0,                                      !- Infrared Transmittance at Normal Incidence
  0.90000000000000002,                    !- Front Side Infrared Hemispherical Emissivity
  0.90000000000000002,                    !- Back Side Infrared Hemispherical Emissivity
  0.013299999999999999,                   !- Conductivity {W/m-K}
  1,                                      !- Dirt Correction Factor for Solar and Visible Transmittance
  No;                                     !- Solar Diffusing

OS:Material,
  {906c100b-59d9-49b8-8abf-af2ab90535f6}, !- Handle
  000_F08 Metal surface,                  !- Name
  Smooth,                                 !- Roughness
  0.00080000000000000004,                 !- Thickness {m}
  45.280000000000001,                     !- Conductivity {W/m-K}
  7824,                                   !- Density {kg/m3}
  500;                                    !- Specific Heat {J/kg-K}

OS:Material,
  {831edb6d-020c-43c1-9cfa-019bb3381371}, !- Handle
  000_I01 25mm insulation board,          !- Name
  MediumRough,                            !- Roughness
  0.025399999999999999,                   !- Thickness {m}
  0.029999999999999999,                   !- Conductivity {W/m-K}
  43,                                     !- Density {kg/m3}
  1210;                                   !- Specific Heat {J/kg-K}

OS:WindowMaterial:Glazing,
  {6ae7b1bb-3e2c-4d84-90c4-d466ecaad640}, !- Handle
  000_Clear 3mm,                          !- Name
  SpectralAverage,                        !- Optical Data Type
  ,                                       !- Window Glass Spectral Data Set Name
  0.0030000000000000001,                  !- Thickness {m}
  0.83699999999999997,                    !- Solar Transmittance at Normal Incidence
  0.074999999999999997,                   !- Front Side Solar Reflectance at Normal Incidence
  0.074999999999999997,                   !- Back Side Solar Reflectance at Normal Incidence
  0.89800000000000002,                    !- Visible Transmittance at Normal Incidence
  0.081000000000000003,                   !- Front Side Visible Reflectance at Normal Incidence
  0.081000000000000003,                   !- Back Side Visible Reflectance at Normal Incidence
  0,                                      !- Infrared Transmittance at Normal Incidence
  0.83999999999999997,                    !- Front Side Infrared Hemispherical Emissivity
  0.83999999999999997,                    !- Back Side Infrared Hemispherical Emissivity
  0.90000000000000002,                    !- Conductivity {W/m-K}
  ,                                       !- Dirt Correction Factor for Solar and Visible Transmittance
  ;                                       !- Solar Diffusing

OS:WindowMaterial:Gas,
  {7a31b5b7-1588-4f41-a53b-01bb47fb9fad}, !- Handle
  000_Air 13mm,                           !- Name
  Air,                                    !- Gas Type
  0.012699999999999999;                   !- Thickness {m}

OS:Building,
  {3d5b6ed9-7f76-4d3d-831e-8198528a4abc}, !- Handle
  Building 1,                             !- Name
  ,                                       !- Building Sector Type
  ,                                       !- North Axis {deg}
  ,                                       !- Nominal Floor to Floor Height {m}
  {0a574f12-c8ee-498a-8607-bf6fcbb7b09b}, !- Space Type Name
  {7ae2faab-be98-43ec-9c48-a04dedef98c4}, !- Default Construction Set Name
  ;                                       !- Default Schedule Set Name

OS:Construction:AirBoundary,
  {ff55c82b-de69-46d9-84ea-36a354ecf310}, !- Handle
  Air_Wall,                               !- Name
  ,                                       !- Air Exchange Method
  0,                                      !- Simple Mixing Air Changes per Hour {1/hr}
  ,                                       !- Simple Mixing Schedule Name
  ;                                       !- Surface Rendering Name

OS:SpaceType,
  {0a574f12-c8ee-498a-8607-bf6fcbb7b09b}, !- Handle
  Baseline Model Space Type,              !- Name
  ,                                       !- Default Construction Set Name
  {5b4a5f59-53c9-41e1-a7fe-2a67c3702873}, !- Default Schedule Set Name
  ,                                       !- Group Rendering Name
  {364d380c-4a82-482f-bc03-861b5287acdf}; !- Design Specification Outdoor Air Object Name

OS:DefaultScheduleSet,
  {5b4a5f59-53c9-41e1-a7fe-2a67c3702873}, !- Handle
  Baseline Model Schedule Set,            !- Name
  ,                                       !- Hours of Operation Schedule Name
  {7bf7bc08-93ad-4f78-a7be-759de6232698}, !- Number of People Schedule Name
  {627695e9-8a4c-4836-9215-b15ee3a32fa9}, !- People Activity Level Schedule Name
  {7bf7bc08-93ad-4f78-a7be-759de6232698}, !- Lighting Schedule Name
  {7bf7bc08-93ad-4f78-a7be-759de6232698}, !- Electric Equipment Schedule Name
  ,                                       !- Gas Equipment Schedule Name
  ,                                       !- Hot Water Equipment Schedule Name
  {9466effc-a3c5-4f80-942e-5381f4fdc3b2}, !- Infiltration Schedule Name
  ,                                       !- Steam Equipment Schedule Name
  ;                                       !- Other Equipment Schedule Name

OS:Schedule:Ruleset,
  {9466effc-a3c5-4f80-942e-5381f4fdc3b2}, !- Handle
  Baseline Model Infiltration Schedule,   !- Name
  {5b0255b4-4b2b-41ee-b771-f4164dc64191}, !- Schedule Type Limits Name
  {4adb9083-d700-45bc-9d34-3f762dd32c79}, !- Default Day Schedule Name
  {0abe0b6b-bdd2-4300-a1f1-220046cb8be0}, !- Summer Design Day Schedule Name
  {93df363d-8ac4-49ac-a8d4-b0148c107727}; !- Winter Design Day Schedule Name

OS:Schedule:Day,
  {4adb9083-d700-45bc-9d34-3f762dd32c79}, !- Handle
  Baseline Model Infiltration Schedule Schedule All Days, !- Name
  {5b0255b4-4b2b-41ee-b771-f4164dc64191}, !- Schedule Type Limits Name
  ,                                       !- Interpolate to Timestep
  6,                                      !- Hour 1
  0,                                      !- Minute 1
  1,                                      !- Value Until Time 1
  22,                                     !- Hour 2
  0,                                      !- Minute 2
  0.25,                                   !- Value Until Time 2
  24,                                     !- Hour 3
  0,                                      !- Minute 3
  1;                                      !- Value Until Time 3

OS:Schedule:Day,
  {288124c7-976b-4372-a910-5dc65d1e3c58}, !- Handle
  Schedule Day 2,                         !- Name
  ,                                       !- Schedule Type Limits Name
  ,                                       !- Interpolate to Timestep
  24,                                     !- Hour 1
  0,                                      !- Minute 1
  0;                                      !- Value Until Time 1

OS:Schedule:Day,
  {93df363d-8ac4-49ac-a8d4-b0148c107727}, !- Handle
  Baseline Model Infiltration Schedule Winter Design Day, !- Name
  {5b0255b4-4b2b-41ee-b771-f4164dc64191}, !- Schedule Type Limits Name
  ,                                       !- Interpolate to Timestep
  24,                                     !- Hour 1
  0,                                      !- Minute 1
  1;                                      !- Value Until Time 1

OS:Schedule:Day,
  {08717982-1084-489d-a7b0-b825e93be266}, !- Handle
  Schedule Day 3,                         !- Name
  ,                                       !- Schedule Type Limits Name
  ,                                       !- Interpolate to Timestep
  24,                                     !- Hour 1
  0,                                      !- Minute 1
  0;                                      !- Value Until Time 1

OS:Schedule:Day,
  {0abe0b6b-bdd2-4300-a1f1-220046cb8be0}, !- Handle
  Baseline Model Infiltration Schedule Summer Design Day, !- Name
  {5b0255b4-4b2b-41ee-b771-f4164dc64191}, !- Schedule Type Limits Name
  ,                                       !- Interpolate to Timestep
  24,                                     !- Hour 1
  0,                                      !- Minute 1
  1;                                      !- Value Until Time 1

OS:ScheduleTypeLimits,
  {5b0255b4-4b2b-41ee-b771-f4164dc64191}, !- Handle
  Fractional,                             !- Name
  0,                                      !- Lower Limit Value
  1,                                      !- Upper Limit Value
  Continuous;                             !- Numeric Type

OS:Schedule:Ruleset,
  {7bf7bc08-93ad-4f78-a7be-759de6232698}, !- Handle
  Baseline Model People Lights and Equipment Schedule, !- Name
  {5b0255b4-4b2b-41ee-b771-f4164dc64191}, !- Schedule Type Limits Name
  {e4640abf-16ab-43e3-a43a-c773d24c4eaa}, !- Default Day Schedule Name
  {dcaf0d9c-36e0-4ca6-9763-8bec0b90a62f}, !- Summer Design Day Schedule Name
  {6a38752a-dfa4-4229-af0b-4fc7d2f222c2}; !- Winter Design Day Schedule Name

OS:Schedule:Day,
  {e4640abf-16ab-43e3-a43a-c773d24c4eaa}, !- Handle
  Baseline Model People Lights and Equipment Schedule Schedule Week Day, !- Name
  {5b0255b4-4b2b-41ee-b771-f4164dc64191}, !- Schedule Type Limits Name
  ,                                       !- Interpolate to Timestep
  6,                                      !- Hour 1
  0,                                      !- Minute 1
  0,                                      !- Value Until Time 1
  7,                                      !- Hour 2
  0,                                      !- Minute 2
  0.1,                                    !- Value Until Time 2
  8,                                      !- Hour 3
  0,                                      !- Minute 3
  0.2,                                    !- Value Until Time 3
  12,                                     !- Hour 4
  0,                                      !- Minute 4
  0.95,                                   !- Value Until Time 4
  13,                                     !- Hour 5
  0,                                      !- Minute 5
  0.5,                                    !- Value Until Time 5
  17,                                     !- Hour 6
  0,                                      !- Minute 6
  0.95,                                   !- Value Until Time 6
  18,                                     !- Hour 7
  0,                                      !- Minute 7
  0.7,                                    !- Value Until Time 7
  20,                                     !- Hour 8
  0,                                      !- Minute 8
  0.4,                                    !- Value Until Time 8
  22,                                     !- Hour 9
  0,                                      !- Minute 9
  0.1,                                    !- Value Until Time 9
  24,                                     !- Hour 10
  0,                                      !- Minute 10
  0.05;                                   !- Value Until Time 10

OS:Schedule:Day,
  {ff6539d7-379b-46f2-aefa-3d71a052b6ab}, !- Handle
  Schedule Day 4,                         !- Name
  ,                                       !- Schedule Type Limits Name
  ,                                       !- Interpolate to Timestep
  24,                                     !- Hour 1
  0,                                      !- Minute 1
  0;                                      !- Value Until Time 1

OS:Schedule:Day,
  {6a38752a-dfa4-4229-af0b-4fc7d2f222c2}, !- Handle
  Baseline Model People Lights and Equipment Schedule Winter Design Day, !- Name
  {5b0255b4-4b2b-41ee-b771-f4164dc64191}, !- Schedule Type Limits Name
  ,                                       !- Interpolate to Timestep
  24,                                     !- Hour 1
  0,                                      !- Minute 1
  0;                                      !- Value Until Time 1

OS:Schedule:Day,
  {237553d9-673d-4561-b3e8-27ce7d0c7c05}, !- Handle
  Schedule Day 5,                         !- Name
  ,                                       !- Schedule Type Limits Name
  ,                                       !- Interpolate to Timestep
  24,                                     !- Hour 1
  0,                                      !- Minute 1
  0;                                      !- Value Until Time 1

OS:Schedule:Day,
  {dcaf0d9c-36e0-4ca6-9763-8bec0b90a62f}, !- Handle
  Baseline Model People Lights and Equipment Schedule Summer Design Day, !- Name
  {5b0255b4-4b2b-41ee-b771-f4164dc64191}, !- Schedule Type Limits Name
  ,                                       !- Interpolate to Timestep
  24,                                     !- Hour 1
  0,                                      !- Minute 1
  1;                                      !- Value Until Time 1

OS:Schedule:Rule,
  {efe732b2-ab56-44bc-aca3-2940e01fefbd}, !- Handle
  Baseline Model People Lights and Equipment Schedule Saturday Rule, !- Name
  {7bf7bc08-93ad-4f78-a7be-759de6232698}, !- Schedule Ruleset Name
  1,                                      !- Rule Order
  {d86cb5ee-ecc4-4f05-88a5-d9fd3065d0e3}, !- Day Schedule Name
  ,                                       !- Apply Sunday
  ,                                       !- Apply Monday
  ,                                       !- Apply Tuesday
  ,                                       !- Apply Wednesday
  ,                                       !- Apply Thursday
  ,                                       !- Apply Friday
  Yes;                                    !- Apply Saturday

OS:Schedule:Day,
  {d86cb5ee-ecc4-4f05-88a5-d9fd3065d0e3}, !- Handle
  Baseline Model People Lights and Equipment Schedule Saturday, !- Name
  {5b0255b4-4b2b-41ee-b771-f4164dc64191}, !- Schedule Type Limits Name
  ,                                       !- Interpolate to Timestep
  6,                                      !- Hour 1
  0,                                      !- Minute 1
  0,                                      !- Value Until Time 1
  8,                                      !- Hour 2
  0,                                      !- Minute 2
  0.1,                                    !- Value Until Time 2
  14,                                     !- Hour 3
  0,                                      !- Minute 3
  0.5,                                    !- Value Until Time 3
  17,                                     !- Hour 4
  0,                                      !- Minute 4
  0.1,                                    !- Value Until Time 4
  24,                                     !- Hour 5
  0,                                      !- Minute 5
  0;                                      !- Value Until Time 5

OS:Schedule:Rule,
  {3bfdc30f-add4-4002-8b73-60cfac0dce73}, !- Handle
  Baseline Model People Lights and Equipment Schedule Sunday Rule, !- Name
  {7bf7bc08-93ad-4f78-a7be-759de6232698}, !- Schedule Ruleset Name
  0,                                      !- Rule Order
  {6b261382-2437-4ba8-978f-43dd5475720a}, !- Day Schedule Name
  Yes;                                    !- Apply Sunday

OS:Schedule:Day,
  {6b261382-2437-4ba8-978f-43dd5475720a}, !- Handle
  Baseline Model People Lights and Equipment Schedule Schedule Sunday, !- Name
  {5b0255b4-4b2b-41ee-b771-f4164dc64191}, !- Schedule Type Limits Name
  ,                                       !- Interpolate to Timestep
  24,                                     !- Hour 1
  0,                                      !- Minute 1
  0;                                      !- Value Until Time 1

OS:Schedule:Ruleset,
  {627695e9-8a4c-4836-9215-b15ee3a32fa9}, !- Handle
  Baseline Model People Activity Schedule, !- Name
  {12885c08-e8c0-4d7f-adc7-7a9fa7d2ac5f}, !- Schedule Type Limits Name
  {3022b010-5e64-48ce-9bac-8a8ba6528eb7}; !- Default Day Schedule Name

OS:Schedule:Day,
  {3022b010-5e64-48ce-9bac-8a8ba6528eb7}, !- Handle
  Baseline Model People Activity Schedule Default, !- Name
  {12885c08-e8c0-4d7f-adc7-7a9fa7d2ac5f}, !- Schedule Type Limits Name
  ,                                       !- Interpolate to Timestep
  24,                                     !- Hour 1
  0,                                      !- Minute 1
  120;                                    !- Value Until Time 1

OS:ScheduleTypeLimits,
  {12885c08-e8c0-4d7f-adc7-7a9fa7d2ac5f}, !- Handle
  ActivityLevel,                          !- Name
  0,                                      !- Lower Limit Value
  ,                                       !- Upper Limit Value
  Continuous,                             !- Numeric Type
  ActivityLevel;                          !- Unit Type

OS:DesignSpecification:OutdoorAir,
  {364d380c-4a82-482f-bc03-861b5287acdf}, !- Handle
  Baseline Model OA,                      !- Name
  Sum,                                    !- Outdoor Air Method
  0.009438948864,                         !- Outdoor Air Flow per Person {m3/s-person}
  ,                                       !- Outdoor Air Flow per Floor Area {m3/s-m2}
  ,                                       !- Outdoor Air Flow Rate {m3/s}
  ,                                       !- Outdoor Air Flow Air Changes per Hour {1/hr}
  ;                                       !- Outdoor Air Flow Rate Fraction Schedule Name

OS:SpaceInfiltration:DesignFlowRate,
  {61440d40-29db-4281-9d45-5caa1dbc4677}, !- Handle
  Baseline Model Infiltration,            !- Name
  {0a574f12-c8ee-498a-8607-bf6fcbb7b09b}, !- Space or SpaceType Name
  ,                                       !- Schedule Name
  Flow/ExteriorArea,                      !- Design Flow Rate Calculation Method
  ,                                       !- Design Flow Rate {m3/s}
  ,                                       !- Flow per Space Floor Area {m3/s-m2}
  0.0003048,                              !- Flow per Exterior Surface Area {m3/s-m2}
  ,                                       !- Air Changes per Hour {1/hr}
  ,                                       !- Constant Term Coefficient
  ,                                       !- Temperature Term Coefficient
  ,                                       !- Velocity Term Coefficient
  ;                                       !- Velocity Squared Term Coefficient

OS:People:Definition,
  {394499ee-5f29-48ba-9401-59534ad81441}, !- Handle
  Baseline Model People Definition,       !- Name
  People/Area,                            !- Number of People Calculation Method
  ,                                       !- Number of People {people}
  0.0538195520835486,                     !- People per Space Floor Area {person/m2}
  ,                                       !- Space Floor Area per Person {m2/person}
  0.3;                                    !- Fraction Radiant

OS:People,
  {b540fef8-fd88-4b24-8215-4b23445181b7}, !- Handle
  Baseline Model People,                  !- Name
  {394499ee-5f29-48ba-9401-59534ad81441}, !- People Definition Name
  {0a574f12-c8ee-498a-8607-bf6fcbb7b09b}, !- Space or SpaceType Name
  ,                                       !- Number of People Schedule Name
  ,                                       !- Activity Level Schedule Name
  ,                                       !- Surface Name/Angle Factor List Name
  ,                                       !- Work Efficiency Schedule Name
  ,                                       !- Clothing Insulation Schedule Name
  ,                                       !- Air Velocity Schedule Name
  1;                                      !- Multiplier

OS:Lights:Definition,
  {c580d81e-4c38-4920-b373-e688fd3533dd}, !- Handle
  Baseline Model Lights Definition,       !- Name
  Watts/Area,                             !- Design Level Calculation Method
  ,                                       !- Lighting Level {W}
  10.7639104167097,                       !- Watts per Space Floor Area {W/m2}
  ;                                       !- Watts per Person {W/person}

OS:Lights,
  {4990de26-6fdc-4187-b18c-427d90e10a79}, !- Handle
  Baseline Model Lights,                  !- Name
  {c580d81e-4c38-4920-b373-e688fd3533dd}, !- Lights Definition Name
  {0a574f12-c8ee-498a-8607-bf6fcbb7b09b}, !- Space or SpaceType Name
  ,                                       !- Schedule Name
  1,                                      !- Fraction Replaceable
  ,                                       !- Multiplier
  General;                                !- End-Use Subcategory

OS:ElectricEquipment:Definition,
  {f0185d69-2826-40e4-a7f4-b126afece7ee}, !- Handle
  Baseline Model Electric Equipment Definition, !- Name
  Watts/Area,                             !- Design Level Calculation Method
  ,                                       !- Design Level {W}
  10.7639104167097,                       !- Watts per Space Floor Area {W/m2}
  ;                                       !- Watts per Person {W/person}

OS:ElectricEquipment,
  {463fe819-b5b2-41e8-a83d-fdf7a3ddf60e}, !- Handle
  Baseline Model Electric Equipment,      !- Name
  {f0185d69-2826-40e4-a7f4-b126afece7ee}, !- Electric Equipment Definition Name
  {0a574f12-c8ee-498a-8607-bf6fcbb7b09b}, !- Space or SpaceType Name
  ,                                       !- Schedule Name
  ,                                       !- Multiplier
  General;                                !- End-Use Subcategory

OS:SizingPeriod:DesignDay,
  {04b1ca8c-1c8e-4d5b-bc0a-b57edc5a080c}, !- Handle
  Chicago Ohare Intl Ap Ann Htg 99.6% Condns DB, !- Name
  -20,                                    !- Maximum Dry-Bulb Temperature {C}
  0,                                      !- Daily Dry-Bulb Temperature Range {deltaC}
  98934,                                  !- Barometric Pressure {Pa}
  4.9,                                    !- Wind Speed {m/s}
  270,                                    !- Wind Direction {deg}
  0,                                      !- Sky Clearness
  No,                                     !- Rain Indicator
  No,                                     !- Snow Indicator
  21,                                     !- Day of Month
  1,                                      !- Month
  WinterDesignDay,                        !- Day Type
  No,                                     !- Daylight Saving Time Indicator
  Wetbulb,                                !- Humidity Condition Type
  ,                                       !- Humidity Condition Day Schedule Name
  -20,                                    !- Wetbulb or DewPoint at Maximum Dry-Bulb {C}
  ,                                       !- Humidity Ratio at Maximum Dry-Bulb {kgWater/kgDryAir}
  ,                                       !- Enthalpy at Maximum Dry-Bulb {J/kg}
  DefaultMultipliers,                     !- Dry-Bulb Temperature Range Modifier Type
  ,                                       !- Dry-Bulb Temperature Range Modifier Day Schedule Name
  ASHRAEClearSky;                         !- Solar Model Indicator

OS:SizingPeriod:DesignDay,
  {15a60b67-0500-4b97-b6dc-be0ef6817919}, !- Handle
  Chicago Ohare Intl Ap Ann Clg .4% Condns DB=>MWB, !- Name
  33.3,                                   !- Maximum Dry-Bulb Temperature {C}
  10.5,                                   !- Daily Dry-Bulb Temperature Range {deltaC}
  98934,                                  !- Barometric Pressure {Pa}
  5.2,                                    !- Wind Speed {m/s}
  230,                                    !- Wind Direction {deg}
  ,                                       !- Sky Clearness
  No,                                     !- Rain Indicator
  No,                                     !- Snow Indicator
  21,                                     !- Day of Month
  7,                                      !- Month
  SummerDesignDay,                        !- Day Type
  No,                                     !- Daylight Saving Time Indicator
  Wetbulb,                                !- Humidity Condition Type
  ,                                       !- Humidity Condition Day Schedule Name
  23.7,                                   !- Wetbulb or DewPoint at Maximum Dry-Bulb {C}
  ,                                       !- Humidity Ratio at Maximum Dry-Bulb {kgWater/kgDryAir}
  ,                                       !- Enthalpy at Maximum Dry-Bulb {J/kg}
  DefaultMultipliers,                     !- Dry-Bulb Temperature Range Modifier Type
  ,                                       !- Dry-Bulb Temperature Range Modifier Day Schedule Name
  ASHRAETau,                              !- Solar Model Indicator
  ,                                       !- Beam Solar Day Schedule Name
  ,                                       !- Diffuse Solar Day Schedule Name
  0.455,                                  !- ASHRAE Clear Sky Optical Depth for Beam Irradiance {dimensionless}
  2.05;                                   !- ASHRAE Clear Sky Optical Depth for Diffuse Irradiance {dimensionless}

OS:SimulationControl,
  {55bf3d3d-a771-4c60-b1bd-e2d122f183db}, !- Handle
  ,                                       !- Do Zone Sizing Calculation
  ,                                       !- Do System Sizing Calculation
  ,                                       !- Do Plant Sizing Calculation
  No,                                     !- Run Simulation for Sizing Periods
  Yes;                                    !- Run Simulation for Weather File Run Periods

OS:Timestep,
  {44fae438-e353-422f-ab21-ff4f23001f0f}, !- Handle
  4;                                      !- Number of Timesteps per Hour

OS:OutputControl:Table:Style,
  {febeeba8-03da-4361-a420-4f25a8ac49b9}, !- Handle
  HTML,                                   !- Column Separator
  InchPound;                              !- Unit Conversion

OS:Output:SQLite,
  {83bc9f6c-0733-4b30-86bc-d7c86546a950}, !- Handle
  SimpleAndTabular,                       !- Option Type
  None;                                   !- Unit Conversion for Tabular Data

OS:Output:Schedules,
  {059f6af2-fcfd-4933-8ecc-1b7402032ca9}, !- Handle
  Timestep;                               !- Key Field

OS:Output:Constructions,
  {535141d7-dc02-4af7-bf17-d7392c898a3b}, !- Handle
  Yes,                                    !- Report Constructions
  Yes;                                    !- Report Materials

OS:YearDescription,
  {4a32e7bd-781f-43ba-8449-4aea0c852c05}, !- Handle
  ,                                       !- Calendar Year
  Thursday;                               !- Day of Week for Start Day

