
OS:Version,
  {a04a7912-457a-4aaa-a0bb-e4f41d169edd}, !- Handle
  3.0.0;                                  !- Version Identifier

OS:BuildingStory,
  {be0338d4-3dc6-4de9-b862-541e2dda051e}, !- Handle
  Story 1,                                !- Name
  0,                                      !- Nominal Z Coordinate {m}
  4,                                      !- Nominal Floor to Floor Height {m}
  ,                                       !- Default Construction Set Name
  ,                                       !- Default Schedule Set Name
  ;                                       !- Group Rendering Name

OS:Space,
  {096092c3-7fb2-44c2-9a68-e641f1bc4ec3}, !- Handle
  Story 1 Core Space,                     !- Name
  ,                                       !- Space Type Name
  ,                                       !- Default Construction Set Name
  ,                                       !- Default Schedule Set Name
  -0,                                     !- Direction of Relative North {deg}
  0,                                      !- X Origin {m}
  0,                                      !- Y Origin {m}
  0,                                      !- Z Origin {m}
  {be0338d4-3dc6-4de9-b862-541e2dda051e}, !- Building Story Name
  {e6175259-3ebf-4d22-b216-b8c9426cac7d}; !- Thermal Zone Name

OS:Surface,
  {bee4d4a6-bee7-4c04-b9ad-e4a45f2d6325}, !- Handle
  Surface 1,                              !- Name
  Floor,                                  !- Surface Type
  ,                                       !- Construction Name
  {096092c3-7fb2-44c2-9a68-e641f1bc4ec3}, !- Space Name
  Ground,                                 !- Outside Boundary Condition
  ,                                       !- Outside Boundary Condition Object
  NoSun,                                  !- Sun Exposure
  NoWind,                                 !- Wind Exposure
  ,                                       !- View Factor to Ground
  ,                                       !- Number of Vertices
  0, 0, 0,                                !- X,Y,Z Vertex 1 {m}
  0, 50, 0,                               !- X,Y,Z Vertex 2 {m}
  100, 50, 0,                             !- X,Y,Z Vertex 3 {m}
  100, 0, 0;                              !- X,Y,Z Vertex 4 {m}

OS:Surface,
  {848e7aa6-4a6f-4bb9-9e19-d7d1532675fa}, !- Handle
  Surface 2,                              !- Name
  Wall,                                   !- Surface Type
  ,                                       !- Construction Name
  {096092c3-7fb2-44c2-9a68-e641f1bc4ec3}, !- Space Name
  Outdoors,                               !- Outside Boundary Condition
  ,                                       !- Outside Boundary Condition Object
  SunExposed,                             !- Sun Exposure
  WindExposed,                            !- Wind Exposure
  ,                                       !- View Factor to Ground
  ,                                       !- Number of Vertices
  0, 50, 4,                               !- X,Y,Z Vertex 1 {m}
  0, 50, 0,                               !- X,Y,Z Vertex 2 {m}
  0, 0, 0,                                !- X,Y,Z Vertex 3 {m}
  0, 0, 4;                                !- X,Y,Z Vertex 4 {m}

OS:Surface,
  {c4e8d6ac-967b-408f-a959-79517505f3b9}, !- Handle
  Surface 3,                              !- Name
  Wall,                                   !- Surface Type
  ,                                       !- Construction Name
  {096092c3-7fb2-44c2-9a68-e641f1bc4ec3}, !- Space Name
  Outdoors,                               !- Outside Boundary Condition
  ,                                       !- Outside Boundary Condition Object
  SunExposed,                             !- Sun Exposure
  WindExposed,                            !- Wind Exposure
  ,                                       !- View Factor to Ground
  ,                                       !- Number of Vertices
  100, 50, 4,                             !- X,Y,Z Vertex 1 {m}
  100, 50, 0,                             !- X,Y,Z Vertex 2 {m}
  0, 50, 0,                               !- X,Y,Z Vertex 3 {m}
  0, 50, 4;                               !- X,Y,Z Vertex 4 {m}

OS:Surface,
  {bd6be006-c15e-4a74-98f2-7e68428bf2fa}, !- Handle
  Surface 4,                              !- Name
  Wall,                                   !- Surface Type
  ,                                       !- Construction Name
  {096092c3-7fb2-44c2-9a68-e641f1bc4ec3}, !- Space Name
  Outdoors,                               !- Outside Boundary Condition
  ,                                       !- Outside Boundary Condition Object
  SunExposed,                             !- Sun Exposure
  WindExposed,                            !- Wind Exposure
  ,                                       !- View Factor to Ground
  ,                                       !- Number of Vertices
  100, 0, 4,                              !- X,Y,Z Vertex 1 {m}
  100, 0, 0,                              !- X,Y,Z Vertex 2 {m}
  100, 50, 0,                             !- X,Y,Z Vertex 3 {m}
  100, 50, 4;                             !- X,Y,Z Vertex 4 {m}

OS:Surface,
  {2e935912-9e76-4f84-b8c8-9b9e75f427b4}, !- Handle
  Surface 5,                              !- Name
  Wall,                                   !- Surface Type
  ,                                       !- Construction Name
  {096092c3-7fb2-44c2-9a68-e641f1bc4ec3}, !- Space Name
  Outdoors,                               !- Outside Boundary Condition
  ,                                       !- Outside Boundary Condition Object
  SunExposed,                             !- Sun Exposure
  WindExposed,                            !- Wind Exposure
  ,                                       !- View Factor to Ground
  ,                                       !- Number of Vertices
  0, 0, 4,                                !- X,Y,Z Vertex 1 {m}
  0, 0, 0,                                !- X,Y,Z Vertex 2 {m}
  100, 0, 0,                              !- X,Y,Z Vertex 3 {m}
  100, 0, 4;                              !- X,Y,Z Vertex 4 {m}

OS:Surface,
  {4d92327e-80ff-41c6-b993-c6d5a9bba393}, !- Handle
  Surface 6,                              !- Name
  RoofCeiling,                            !- Surface Type
  ,                                       !- Construction Name
  {096092c3-7fb2-44c2-9a68-e641f1bc4ec3}, !- Space Name
  Outdoors,                               !- Outside Boundary Condition
  ,                                       !- Outside Boundary Condition Object
  SunExposed,                             !- Sun Exposure
  WindExposed,                            !- Wind Exposure
  ,                                       !- View Factor to Ground
  ,                                       !- Number of Vertices
  100, 0, 4,                              !- X,Y,Z Vertex 1 {m}
  100, 50, 4,                             !- X,Y,Z Vertex 2 {m}
  0, 50, 4,                               !- X,Y,Z Vertex 3 {m}
  0, 0, 4;                                !- X,Y,Z Vertex 4 {m}

OS:ThermalZone,
  {e6175259-3ebf-4d22-b216-b8c9426cac7d}, !- Handle
  Story 1 Core Thermal Zone,              !- Name
  ,                                       !- Multiplier
  ,                                       !- Ceiling Height {m}
  ,                                       !- Volume {m3}
  ,                                       !- Floor Area {m2}
  ,                                       !- Zone Inside Convection Algorithm
  ,                                       !- Zone Outside Convection Algorithm
  ,                                       !- Zone Conditioning Equipment List Name
  {b58d5ffd-1e02-4e9e-a549-e3cc2f9f10f1}, !- Zone Air Inlet Port List
  {96e9e0fa-4294-4800-90ab-b35d633001b2}, !- Zone Air Exhaust Port List
  {1c9652d0-09bc-41a1-ba93-1db6214f0cf7}, !- Zone Air Node Name
  {df7abf6c-32af-437f-9914-f58a0bad0ae6}, !- Zone Return Air Port List
  ,                                       !- Primary Daylighting Control Name
  ,                                       !- Fraction of Zone Controlled by Primary Daylighting Control
  ,                                       !- Secondary Daylighting Control Name
  ,                                       !- Fraction of Zone Controlled by Secondary Daylighting Control
  ,                                       !- Illuminance Map Name
  ,                                       !- Group Rendering Name
  {f7bcf703-f3a0-4ca2-85c6-00b0e9ba6131}, !- Thermostat Name
  Yes;                                    !- Use Ideal Air Loads

OS:Node,
  {3d79518a-23ae-4779-80e6-0bd12205fc87}, !- Handle
  Node 1,                                 !- Name
  {1c9652d0-09bc-41a1-ba93-1db6214f0cf7}, !- Inlet Port
  ;                                       !- Outlet Port

OS:Connection,
  {1c9652d0-09bc-41a1-ba93-1db6214f0cf7}, !- Handle
  {a13be296-578d-4630-8441-e4795bd25e76}, !- Name
  {e6175259-3ebf-4d22-b216-b8c9426cac7d}, !- Source Object
  11,                                     !- Outlet Port
  {3d79518a-23ae-4779-80e6-0bd12205fc87}, !- Target Object
  2;                                      !- Inlet Port

OS:PortList,
  {b58d5ffd-1e02-4e9e-a549-e3cc2f9f10f1}, !- Handle
  {77596c36-d04e-4842-a539-8314b28a3420}, !- Name
  {e6175259-3ebf-4d22-b216-b8c9426cac7d}; !- HVAC Component

OS:PortList,
  {96e9e0fa-4294-4800-90ab-b35d633001b2}, !- Handle
  {5a9daf66-8911-4833-a5da-d4015d9c6bc8}, !- Name
  {e6175259-3ebf-4d22-b216-b8c9426cac7d}; !- HVAC Component

OS:PortList,
  {df7abf6c-32af-437f-9914-f58a0bad0ae6}, !- Handle
  {56493a02-a993-485b-856f-2ee318d80aec}, !- Name
  {e6175259-3ebf-4d22-b216-b8c9426cac7d}; !- HVAC Component

OS:Sizing:Zone,
  {c4b00196-4668-46d7-a40a-88eade04fc51}, !- Handle
  {e6175259-3ebf-4d22-b216-b8c9426cac7d}, !- Zone or ZoneList Name
  SupplyAirTemperature,                   !- Zone Cooling Design Supply Air Temperature Input Method
  14,                                     !- Zone Cooling Design Supply Air Temperature {C}
  11.11,                                  !- Zone Cooling Design Supply Air Temperature Difference {deltaC}
  SupplyAirTemperature,                   !- Zone Heating Design Supply Air Temperature Input Method
  40,                                     !- Zone Heating Design Supply Air Temperature {C}
  11.11,                                  !- Zone Heating Design Supply Air Temperature Difference {deltaC}
  0.0085,                                 !- Zone Cooling Design Supply Air Humidity Ratio {kg-H2O/kg-air}
  0.008,                                  !- Zone Heating Design Supply Air Humidity Ratio {kg-H2O/kg-air}
  ,                                       !- Zone Heating Sizing Factor
  ,                                       !- Zone Cooling Sizing Factor
  DesignDay,                              !- Cooling Design Air Flow Method
  ,                                       !- Cooling Design Air Flow Rate {m3/s}
  ,                                       !- Cooling Minimum Air Flow per Zone Floor Area {m3/s-m2}
  ,                                       !- Cooling Minimum Air Flow {m3/s}
  ,                                       !- Cooling Minimum Air Flow Fraction
  DesignDay,                              !- Heating Design Air Flow Method
  ,                                       !- Heating Design Air Flow Rate {m3/s}
  ,                                       !- Heating Maximum Air Flow per Zone Floor Area {m3/s-m2}
  ,                                       !- Heating Maximum Air Flow {m3/s}
  ,                                       !- Heating Maximum Air Flow Fraction
  No,                                     !- Account for Dedicated Outdoor Air System
  NeutralSupplyAir,                       !- Dedicated Outdoor Air System Control Strategy
  autosize,                               !- Dedicated Outdoor Air Low Setpoint Temperature for Design {C}
  autosize;                               !- Dedicated Outdoor Air High Setpoint Temperature for Design {C}

OS:ZoneHVAC:EquipmentList,
  {ec518dd3-ff71-419c-a072-4527102375b5}, !- Handle
  Zone HVAC Equipment List 1,             !- Name
  {e6175259-3ebf-4d22-b216-b8c9426cac7d}; !- Thermal Zone

OS:SubSurface,
  {45dba0db-c82f-4457-9b45-5e224b063d18}, !- Handle
  Sub Surface 1,                          !- Name
  FixedWindow,                            !- Sub Surface Type
  ,                                       !- Construction Name
  {2e935912-9e76-4f84-b8c8-9b9e75f427b4}, !- Surface Name
  ,                                       !- Outside Boundary Condition Object
  ,                                       !- View Factor to Ground
  ,                                       !- Shading Control Name
  ,                                       !- Frame and Divider Name
  ,                                       !- Multiplier
  ,                                       !- Number of Vertices
  0.0254, 0, 2.60081321311226,            !- X,Y,Z Vertex 1 {m}
  0.0254, 0, 1,                           !- X,Y,Z Vertex 2 {m}
  99.9746, 0, 1,                          !- X,Y,Z Vertex 3 {m}
  99.9746, 0, 2.60081321311226;           !- X,Y,Z Vertex 4 {m}

OS:SubSurface,
  {c27b97f9-be24-45f2-abda-af63c57a01c5}, !- Handle
  Sub Surface 2,                          !- Name
  FixedWindow,                            !- Sub Surface Type
  ,                                       !- Construction Name
  {bd6be006-c15e-4a74-98f2-7e68428bf2fa}, !- Surface Name
  ,                                       !- Outside Boundary Condition Object
  ,                                       !- View Factor to Ground
  ,                                       !- Shading Control Name
  ,                                       !- Frame and Divider Name
  ,                                       !- Multiplier
  ,                                       !- Number of Vertices
  100, 0.0254, 2.60162725328934,          !- X,Y,Z Vertex 1 {m}
  100, 0.0254, 1,                         !- X,Y,Z Vertex 2 {m}
  100, 49.9746, 1,                        !- X,Y,Z Vertex 3 {m}
  100, 49.9746, 2.60162725328934;         !- X,Y,Z Vertex 4 {m}

OS:SubSurface,
  {6e104692-a378-4ed2-9aa5-a449518a4ad5}, !- Handle
  Sub Surface 3,                          !- Name
  FixedWindow,                            !- Sub Surface Type
  ,                                       !- Construction Name
  {848e7aa6-4a6f-4bb9-9e19-d7d1532675fa}, !- Surface Name
  ,                                       !- Outside Boundary Condition Object
  ,                                       !- View Factor to Ground
  ,                                       !- Shading Control Name
  ,                                       !- Frame and Divider Name
  ,                                       !- Multiplier
  ,                                       !- Number of Vertices
  0, 49.9746, 2.60162725328934,           !- X,Y,Z Vertex 1 {m}
  0, 49.9746, 1,                          !- X,Y,Z Vertex 2 {m}
  0, 0.0254000000000048, 1,               !- X,Y,Z Vertex 3 {m}
  0, 0.0254000000000048, 2.60162725328934; !- X,Y,Z Vertex 4 {m}

OS:SubSurface,
  {9f68ed4e-0aef-4e0d-85ca-7c8e01dee823}, !- Handle
  Sub Surface 4,                          !- Name
  FixedWindow,                            !- Sub Surface Type
  ,                                       !- Construction Name
  {c4e8d6ac-967b-408f-a959-79517505f3b9}, !- Surface Name
  ,                                       !- Outside Boundary Condition Object
  ,                                       !- View Factor to Ground
  ,                                       !- Shading Control Name
  ,                                       !- Frame and Divider Name
  ,                                       !- Multiplier
  ,                                       !- Number of Vertices
  99.9746, 50, 2.60081321311226,          !- X,Y,Z Vertex 1 {m}
  99.9746, 50, 1,                         !- X,Y,Z Vertex 2 {m}
  0.0253999999999905, 50, 1,              !- X,Y,Z Vertex 3 {m}
  0.0253999999999905, 50, 2.60081321311226; !- X,Y,Z Vertex 4 {m}

OS:Schedule:Ruleset,
  {9cc02fe4-c705-426a-a3e3-52653be6f907}, !- Handle
  Cooling Sch,                            !- Name
  {d90b9eba-bda2-42d8-a9fa-cc818d1bb803}, !- Schedule Type Limits Name
  {afdc24d1-5a5a-42e2-9888-c1216e22aab3}; !- Default Day Schedule Name

OS:Schedule:Day,
  {afdc24d1-5a5a-42e2-9888-c1216e22aab3}, !- Handle
  Cooling Sch Default,                    !- Name
  {d90b9eba-bda2-42d8-a9fa-cc818d1bb803}, !- Schedule Type Limits Name
  ,                                       !- Interpolate to Timestep
  24,                                     !- Hour 1
  0,                                      !- Minute 1
  26;                                     !- Value Until Time 1

OS:Schedule:Ruleset,
  {8d54eb2f-8ef9-494d-bfc5-fb8cca028f76}, !- Handle
  Heating Sch,                            !- Name
  {d90b9eba-bda2-42d8-a9fa-cc818d1bb803}, !- Schedule Type Limits Name
  {dc5afcbe-dc53-4319-b1a8-3633e20b61be}; !- Default Day Schedule Name

OS:Schedule:Day,
  {dc5afcbe-dc53-4319-b1a8-3633e20b61be}, !- Handle
  Heating Sch Default,                    !- Name
  {d90b9eba-bda2-42d8-a9fa-cc818d1bb803}, !- Schedule Type Limits Name
  ,                                       !- Interpolate to Timestep
  24,                                     !- Hour 1
  0,                                      !- Minute 1
  19;                                     !- Value Until Time 1

OS:ThermostatSetpoint:DualSetpoint,
  {f7bcf703-f3a0-4ca2-85c6-00b0e9ba6131}, !- Handle
  Thermostat Setpoint Dual Setpoint 1,    !- Name
  {8d54eb2f-8ef9-494d-bfc5-fb8cca028f76}, !- Heating Setpoint Temperature Schedule Name
  {9cc02fe4-c705-426a-a3e3-52653be6f907}; !- Cooling Setpoint Temperature Schedule Name

OS:ScheduleTypeLimits,
  {d90b9eba-bda2-42d8-a9fa-cc818d1bb803}, !- Handle
  Temperature,                            !- Name
  ,                                       !- Lower Limit Value
  ,                                       !- Upper Limit Value
  Continuous,                             !- Numeric Type
  Temperature;                            !- Unit Type

OS:DefaultConstructionSet,
  {3d167ec0-b0b6-4a8d-ae81-7a2f10b42cf3}, !- Handle
  ASHRAE_189.1-2009_ClimateZone 4-5 (mdoff)_ConstSet, !- Name
  {358ed947-bca2-4f44-bfdf-91e0e58370cb}, !- Default Exterior Surface Constructions Name
  {0ebb2ef3-669c-4b01-82b7-74d55fc45a9b}, !- Default Interior Surface Constructions Name
  {06419111-bd5a-4b8f-bf17-c27fa9d76d12}, !- Default Ground Contact Surface Constructions Name
  {9b0657db-817c-42db-99fe-64fdef0e2ac4}, !- Default Exterior SubSurface Constructions Name
  {aa835831-209f-4a6f-8926-2452bcf06aed}, !- Default Interior SubSurface Constructions Name
  {af5d85b9-0e47-4129-b91d-7ec371fb738a}, !- Interior Partition Construction Name
  ,                                       !- Space Shading Construction Name
  ,                                       !- Building Shading Construction Name
  ,                                       !- Site Shading Construction Name
  ;                                       !- Adiabatic Surface Construction Name

OS:DefaultSurfaceConstructions,
  {358ed947-bca2-4f44-bfdf-91e0e58370cb}, !- Handle
  ASHRAE_189.1-2009_ClimateZone 4-5 (mdoff)_Exterior_DefSurfCons, !- Name
  {424a61db-dc45-46ed-a79c-8cfe32344313}, !- Floor Construction Name
  {0f420fcd-693d-467c-8eb1-6a5cd5bf5400}, !- Wall Construction Name
  {6ec0295b-e79d-4735-833d-d1beb915ea50}; !- Roof Ceiling Construction Name

OS:DefaultSurfaceConstructions,
  {0ebb2ef3-669c-4b01-82b7-74d55fc45a9b}, !- Handle
  000_Interior_DefSurfCons,               !- Name
  {988e8ece-c1fc-4405-a238-b456fa6f3402}, !- Floor Construction Name
  {2db3e980-7865-42c4-9647-f1760f4b16d7}, !- Wall Construction Name
  {4910e9b9-cc7a-4176-929b-1df260c2aa0e}; !- Roof Ceiling Construction Name

OS:DefaultSurfaceConstructions,
  {06419111-bd5a-4b8f-bf17-c27fa9d76d12}, !- Handle
  000_Ground_DefSurfCons,                 !- Name
  {424a61db-dc45-46ed-a79c-8cfe32344313}, !- Floor Construction Name
  {424a61db-dc45-46ed-a79c-8cfe32344313}, !- Wall Construction Name
  {424a61db-dc45-46ed-a79c-8cfe32344313}; !- Roof Ceiling Construction Name

OS:DefaultSubSurfaceConstructions,
  {9b0657db-817c-42db-99fe-64fdef0e2ac4}, !- Handle
  ASHRAE_189.1-2009_ClimateZone 4-5 (mdoff)_Exterior_DefSubCons, !- Name
  {683e407c-cf1c-437d-9bba-a86a21eba84d}, !- Fixed Window Construction Name
  {683e407c-cf1c-437d-9bba-a86a21eba84d}, !- Operable Window Construction Name
  {25e9e1a6-d2fc-486c-9ccf-1e5e92e38df3}, !- Door Construction Name
  {8fd4927b-42a1-4b4d-9c8d-1594353b1925}, !- Glass Door Construction Name
  ,                                       !- Overhead Door Construction Name
  {8fd4927b-42a1-4b4d-9c8d-1594353b1925}, !- Skylight Construction Name
  {a2e8fd5f-5d6d-4c1d-abb0-f82087abfaef}, !- Tubular Daylight Dome Construction Name
  {a2e8fd5f-5d6d-4c1d-abb0-f82087abfaef}; !- Tubular Daylight Diffuser Construction Name

OS:DefaultSubSurfaceConstructions,
  {aa835831-209f-4a6f-8926-2452bcf06aed}, !- Handle
  000_Interior_DefSubCons,                !- Name
  {a2e8fd5f-5d6d-4c1d-abb0-f82087abfaef}, !- Fixed Window Construction Name
  {a2e8fd5f-5d6d-4c1d-abb0-f82087abfaef}, !- Operable Window Construction Name
  {1bb2a564-679b-4bfa-9446-c25fce61e157}, !- Door Construction Name
  {8fd4927b-42a1-4b4d-9c8d-1594353b1925}, !- Glass Door Construction Name
  ,                                       !- Overhead Door Construction Name
  {8fd4927b-42a1-4b4d-9c8d-1594353b1925}, !- Skylight Construction Name
  {a2e8fd5f-5d6d-4c1d-abb0-f82087abfaef}, !- Tubular Daylight Dome Construction Name
  {a2e8fd5f-5d6d-4c1d-abb0-f82087abfaef}; !- Tubular Daylight Diffuser Construction Name

OS:Construction,
  {af5d85b9-0e47-4129-b91d-7ec371fb738a}, !- Handle
  000_Interior Partition,                 !- Name
  ,                                       !- Surface Rendering Name
  {6c90558d-2266-4205-bcbb-5fc9067d8ce8}; !- Layer 1

OS:Construction,
  {424a61db-dc45-46ed-a79c-8cfe32344313}, !- Handle
  000_ExtSlabCarpet_4in_ClimateZone 1-8,  !- Name
  ,                                       !- Surface Rendering Name
  {316a57f2-aef8-4372-b342-aebc6a26503c}, !- Layer 1
  {94fcb104-ab0f-4c99-8eb4-9e0e1d13373c}; !- Layer 2

OS:Construction,
  {0f420fcd-693d-467c-8eb1-6a5cd5bf5400}, !- Handle
  ASHRAE_189.1-2009_ExtWall_SteelFrame_ClimateZone 4-8, !- Name
  ,                                       !- Surface Rendering Name
  {2557c049-c841-41f5-9b07-78a44707c9c0}, !- Layer 1
  {8b808cee-6b2c-49ad-b521-eda35715df24}, !- Layer 2
  {e9fb86e4-f505-4f5e-b10a-cf3f71b9b5fe}; !- Layer 3

OS:Construction,
  {6ec0295b-e79d-4735-833d-d1beb915ea50}, !- Handle
  ASHRAE_189.1-2009_ExtRoof_IEAD_ClimateZone 2-5, !- Name
  ,                                       !- Surface Rendering Name
  {fb5e096a-230c-4992-a6d6-3de10c8f03ee}, !- Layer 1
  {29c3e3f5-584d-43d3-ae00-ce40b4c7bcdc}, !- Layer 2
  {eb99d734-db6f-4469-82be-4d72318352f3}; !- Layer 3

OS:Construction,
  {988e8ece-c1fc-4405-a238-b456fa6f3402}, !- Handle
  000_Interior Floor,                     !- Name
  ,                                       !- Surface Rendering Name
  {ad7f57ff-8ae0-47e3-a218-012d211d8e0c}, !- Layer 1
  {d8531fff-01cb-4b0b-a733-18d5aecd11f7}, !- Layer 2
  {fa53e3a3-fd9b-498b-8b3e-dbdd05d53f49}; !- Layer 3

OS:Construction,
  {2db3e980-7865-42c4-9647-f1760f4b16d7}, !- Handle
  000_Interior Wall,                      !- Name
  ,                                       !- Surface Rendering Name
  {1e57e227-5b92-41b0-b108-f3b69c549868}, !- Layer 1
  {67062a69-7f7f-40bf-b7bb-d2bc33fb7406}, !- Layer 2
  {1e57e227-5b92-41b0-b108-f3b69c549868}; !- Layer 3

OS:Construction,
  {4910e9b9-cc7a-4176-929b-1df260c2aa0e}, !- Handle
  000_Interior Ceiling,                   !- Name
  ,                                       !- Surface Rendering Name
  {fa53e3a3-fd9b-498b-8b3e-dbdd05d53f49}, !- Layer 1
  {d8531fff-01cb-4b0b-a733-18d5aecd11f7}, !- Layer 2
  {ad7f57ff-8ae0-47e3-a218-012d211d8e0c}; !- Layer 3

OS:Construction,
  {683e407c-cf1c-437d-9bba-a86a21eba84d}, !- Handle
  ASHRAE_189.1-2009_ExtWindow_ClimateZone 4-5, !- Name
  ,                                       !- Surface Rendering Name
  {dba348dd-0a7a-4ffb-b1bb-94ed3d884c50}; !- Layer 1

OS:Construction,
  {25e9e1a6-d2fc-486c-9ccf-1e5e92e38df3}, !- Handle
  000_Exterior Door,                      !- Name
  ,                                       !- Surface Rendering Name
  {d407287a-9f8f-48cc-ac73-017d62dce7e6}, !- Layer 1
  {1f501917-4e82-4af6-9a77-7feb152645c0}; !- Layer 2

OS:Construction,
  {8fd4927b-42a1-4b4d-9c8d-1594353b1925}, !- Handle
  000_Exterior Window,                    !- Name
  ,                                       !- Surface Rendering Name
  {fac00d5d-9d8c-43f5-b4b4-2ceafa90e2de}, !- Layer 1
  {d1092ee3-88b9-47c6-9dee-96b5d1bf3a84}, !- Layer 2
  {fac00d5d-9d8c-43f5-b4b4-2ceafa90e2de}; !- Layer 3

OS:Construction,
  {a2e8fd5f-5d6d-4c1d-abb0-f82087abfaef}, !- Handle
  000_Interior Window,                    !- Name
  ,                                       !- Surface Rendering Name
  {fac00d5d-9d8c-43f5-b4b4-2ceafa90e2de}; !- Layer 1

OS:Construction,
  {1bb2a564-679b-4bfa-9446-c25fce61e157}, !- Handle
  000_Interior Door,                      !- Name
  ,                                       !- Surface Rendering Name
  {6c90558d-2266-4205-bcbb-5fc9067d8ce8}; !- Layer 1

OS:Material,
  {6c90558d-2266-4205-bcbb-5fc9067d8ce8}, !- Handle
  000_G05 25mm wood,                      !- Name
  MediumSmooth,                           !- Roughness
  0.025399999999999999,                   !- Thickness {m}
  0.14999999999999999,                    !- Conductivity {W/m-K}
  608,                                    !- Density {kg/m3}
  1630;                                   !- Specific Heat {J/kg-K}

OS:Material,
  {316a57f2-aef8-4372-b342-aebc6a26503c}, !- Handle
  MAT-CC05 4 HW CONCRETE,                 !- Name
  Rough,                                  !- Roughness
  0.1016,                                 !- Thickness {m}
  1.3109999999999999,                     !- Conductivity {W/m-K}
  2240,                                   !- Density {kg/m3}
  836.8,                                  !- Specific Heat {J/kg-K}
  0.90000000000000002,                    !- Thermal Absorptance
  0.69999999999999996,                    !- Solar Absorptance
  0.69999999999999996;                    !- Visible Absorptance

OS:Material:NoMass,
  {94fcb104-ab0f-4c99-8eb4-9e0e1d13373c}, !- Handle
  CP02 CARPET PAD,                        !- Name
  VeryRough,                              !- Roughness
  0.2165,                                 !- Thermal Resistance
  0.90000000000000002,                    !- Thermal Absorptance
  0.69999999999999996,                    !- Solar Absorptance
  0.80000000000000004;                    !- Visible Absorptance

OS:Material:NoMass,
  {2557c049-c841-41f5-9b07-78a44707c9c0}, !- Handle
  MAT-SHEATH,                             !- Name
  Rough,                                  !- Roughness
  0.36259999999999998,                    !- Thermal Resistance
  0.90000000000000002,                    !- Thermal Absorptance
  0.69999999999999996,                    !- Solar Absorptance
  0.69999999999999996;                    !- Visible Absorptance

OS:Material,
  {8b808cee-6b2c-49ad-b521-eda35715df24}, !- Handle
  Wall Insulation [39],                   !- Name
  MediumRough,                            !- Roughness
  0.11840000000000001,                    !- Thickness {m}
  0.044999999999999998,                   !- Conductivity {W/m-K}
  265,                                    !- Density {kg/m3}
  836.8,                                  !- Specific Heat {J/kg-K}
  0.90000000000000002,                    !- Thermal Absorptance
  0.69999999999999996,                    !- Solar Absorptance
  0.69999999999999996;                    !- Visible Absorptance

OS:Material,
  {e9fb86e4-f505-4f5e-b10a-cf3f71b9b5fe}, !- Handle
  1/2IN Gypsum,                           !- Name
  Smooth,                                 !- Roughness
  0.012699999999999999,                   !- Thickness {m}
  0.16,                                   !- Conductivity {W/m-K}
  784.89999999999998,                     !- Density {kg/m3}
  830,                                    !- Specific Heat {J/kg-K}
  0.90000000000000002,                    !- Thermal Absorptance
  0.92000000000000004,                    !- Solar Absorptance
  0.92000000000000004;                    !- Visible Absorptance

OS:Material,
  {fb5e096a-230c-4992-a6d6-3de10c8f03ee}, !- Handle
  Roof Membrane,                          !- Name
  VeryRough,                              !- Roughness
  0.0094999999999999998,                  !- Thickness {m}
  0.16,                                   !- Conductivity {W/m-K}
  1121.29,                                !- Density {kg/m3}
  1460,                                   !- Specific Heat {J/kg-K}
  0.90000000000000002,                    !- Thermal Absorptance
  0.69999999999999996,                    !- Solar Absorptance
  0.69999999999999996;                    !- Visible Absorptance

OS:Material,
  {29c3e3f5-584d-43d3-ae00-ce40b4c7bcdc}, !- Handle
  Roof Insulation [21],                   !- Name
  MediumRough,                            !- Roughness
  0.21049999999999999,                    !- Thickness {m}
  0.049000000000000002,                   !- Conductivity {W/m-K}
  265,                                    !- Density {kg/m3}
  836.8,                                  !- Specific Heat {J/kg-K}
  0.90000000000000002,                    !- Thermal Absorptance
  0.69999999999999996,                    !- Solar Absorptance
  0.69999999999999996;                    !- Visible Absorptance

OS:Material,
  {eb99d734-db6f-4469-82be-4d72318352f3}, !- Handle
  Metal Decking,                          !- Name
  MediumSmooth,                           !- Roughness
  0.0015,                                 !- Thickness {m}
  45.006,                                 !- Conductivity {W/m-K}
  7680,                                   !- Density {kg/m3}
  418.4,                                  !- Specific Heat {J/kg-K}
  0.90000000000000002,                    !- Thermal Absorptance
  0.69999999999999996,                    !- Solar Absorptance
  0.29999999999999999;                    !- Visible Absorptance

OS:Material,
  {ad7f57ff-8ae0-47e3-a218-012d211d8e0c}, !- Handle
  000_F16 Acoustic tile,                  !- Name
  MediumSmooth,                           !- Roughness
  0.019099999999999999,                   !- Thickness {m}
  0.059999999999999998,                   !- Conductivity {W/m-K}
  368,                                    !- Density {kg/m3}
  590;                                    !- Specific Heat {J/kg-K}

OS:Material:AirGap,
  {d8531fff-01cb-4b0b-a733-18d5aecd11f7}, !- Handle
  000_F05 Ceiling air space resistance,   !- Name
  0.17999999999999999;                    !- Thermal Resistance

OS:Material,
  {fa53e3a3-fd9b-498b-8b3e-dbdd05d53f49}, !- Handle
  000_M11 100mm lightweight concrete,     !- Name
  MediumRough,                            !- Roughness
  0.1016,                                 !- Thickness {m}
  0.53000000000000003,                    !- Conductivity {W/m-K}
  1280,                                   !- Density {kg/m3}
  840;                                    !- Specific Heat {J/kg-K}

OS:Material,
  {1e57e227-5b92-41b0-b108-f3b69c549868}, !- Handle
  000_G01a 19mm gypsum board,             !- Name
  MediumSmooth,                           !- Roughness
  0.019,                                  !- Thickness {m}
  0.16,                                   !- Conductivity {W/m-K}
  800,                                    !- Density {kg/m3}
  1090;                                   !- Specific Heat {J/kg-K}

OS:Material:AirGap,
  {67062a69-7f7f-40bf-b7bb-d2bc33fb7406}, !- Handle
  000_F04 Wall air space resistance,      !- Name
  0.14999999999999999;                    !- Thermal Resistance

OS:WindowMaterial:Glazing,
  {dba348dd-0a7a-4ffb-b1bb-94ed3d884c50}, !- Handle
  Theoretical Glass [207],                !- Name
  SpectralAverage,                        !- Optical Data Type
  ,                                       !- Window Glass Spectral Data Set Name
  0.0030000000000000001,                  !- Thickness
  0.33110000000000001,                    !- Solar Transmittance at Normal Incidence
  0.61890000000000001,                    !- Front Side Solar Reflectance at Normal Incidence
  0.61890000000000001,                    !- Back Side Solar Reflectance at Normal Incidence
  0.44,                                   !- Visible Transmittance at Normal Incidence
  0.51000000000000001,                    !- Front Side Visible Reflectance at Normal Incidence
  0.51000000000000001,                    !- Back Side Visible Reflectance at Normal Incidence
  0,                                      !- Infrared Transmittance at Normal Incidence
  0.90000000000000002,                    !- Front Side Infrared Hemispherical Emissivity
  0.90000000000000002,                    !- Back Side Infrared Hemispherical Emissivity
  0.013299999999999999,                   !- Conductivity
  1,                                      !- Dirt Correction Factor for Solar and Visible Transmittance
  No;                                     !- Solar Diffusing

OS:Material,
  {d407287a-9f8f-48cc-ac73-017d62dce7e6}, !- Handle
  000_F08 Metal surface,                  !- Name
  Smooth,                                 !- Roughness
  0.00080000000000000004,                 !- Thickness {m}
  45.280000000000001,                     !- Conductivity {W/m-K}
  7824,                                   !- Density {kg/m3}
  500;                                    !- Specific Heat {J/kg-K}

OS:Material,
  {1f501917-4e82-4af6-9a77-7feb152645c0}, !- Handle
  000_I01 25mm insulation board,          !- Name
  MediumRough,                            !- Roughness
  0.025399999999999999,                   !- Thickness {m}
  0.029999999999999999,                   !- Conductivity {W/m-K}
  43,                                     !- Density {kg/m3}
  1210;                                   !- Specific Heat {J/kg-K}

OS:WindowMaterial:Glazing,
  {fac00d5d-9d8c-43f5-b4b4-2ceafa90e2de}, !- Handle
  000_Clear 3mm,                          !- Name
  SpectralAverage,                        !- Optical Data Type
  ,                                       !- Window Glass Spectral Data Set Name
  0.0030000000000000001,                  !- Thickness
  0.83699999999999997,                    !- Solar Transmittance at Normal Incidence
  0.074999999999999997,                   !- Front Side Solar Reflectance at Normal Incidence
  0.074999999999999997,                   !- Back Side Solar Reflectance at Normal Incidence
  0.89800000000000002,                    !- Visible Transmittance at Normal Incidence
  0.081000000000000003,                   !- Front Side Visible Reflectance at Normal Incidence
  0.081000000000000003,                   !- Back Side Visible Reflectance at Normal Incidence
  0,                                      !- Infrared Transmittance at Normal Incidence
  0.83999999999999997,                    !- Front Side Infrared Hemispherical Emissivity
  0.83999999999999997,                    !- Back Side Infrared Hemispherical Emissivity
  0.90000000000000002,                    !- Conductivity
  ,                                       !- Dirt Correction Factor for Solar and Visible Transmittance
  ;                                       !- Solar Diffusing

OS:WindowMaterial:Gas,
  {d1092ee3-88b9-47c6-9dee-96b5d1bf3a84}, !- Handle
  000_Air 13mm,                           !- Name
  Air,                                    !- Gas Type
  0.012699999999999999;                   !- Thickness

OS:Building,
  {8b6a0aeb-b72c-4844-9b83-22bd858328f8}, !- Handle
  Building 1,                             !- Name
  ,                                       !- Building Sector Type
  ,                                       !- North Axis {deg}
  ,                                       !- Nominal Floor to Floor Height {m}
  {264b9d6d-4e4d-49cd-851b-1d65e0a392ae}, !- Space Type Name
  {3d167ec0-b0b6-4a8d-ae81-7a2f10b42cf3}, !- Default Construction Set Name
  ;                                       !- Default Schedule Set Name

OS:Construction,
  {e89b7855-2f57-4185-8706-818d554822cc}, !- Handle
  Air_Wall,                               !- Name
  ,                                       !- Surface Rendering Name
  {eaab7e24-8b03-4002-aada-6fa5ba4c2ea5}; !- Layer 1

OS:Material:AirWall,
  {eaab7e24-8b03-4002-aada-6fa5ba4c2ea5}, !- Handle
  OS:Material:AirWall 1;                  !- Name

OS:SpaceType,
  {264b9d6d-4e4d-49cd-851b-1d65e0a392ae}, !- Handle
  Baseline Model Space Type,              !- Name
  ,                                       !- Default Construction Set Name
  {29dcc7e2-984c-4848-9657-a27e7942458c}, !- Default Schedule Set Name
  ,                                       !- Group Rendering Name
  {f9241d0a-c4bf-4ca0-918a-60b33531039e}; !- Design Specification Outdoor Air Object Name

OS:DefaultScheduleSet,
  {29dcc7e2-984c-4848-9657-a27e7942458c}, !- Handle
  Baseline Model Schedule Set,            !- Name
  ,                                       !- Hours of Operation Schedule Name
  {aa51c6a8-12ae-4e84-b468-dc1b3fcb47c7}, !- Number of People Schedule Name
  {faa33ce0-0884-4103-ba5b-b5f61115d256}, !- People Activity Level Schedule Name
  {aa51c6a8-12ae-4e84-b468-dc1b3fcb47c7}, !- Lighting Schedule Name
  {aa51c6a8-12ae-4e84-b468-dc1b3fcb47c7}, !- Electric Equipment Schedule Name
  ,                                       !- Gas Equipment Schedule Name
  ,                                       !- Hot Water Equipment Schedule Name
  {631ca830-8f76-47ad-b776-d982dc3cae6c}, !- Infiltration Schedule Name
  ,                                       !- Steam Equipment Schedule Name
  ;                                       !- Other Equipment Schedule Name

OS:Schedule:Ruleset,
  {631ca830-8f76-47ad-b776-d982dc3cae6c}, !- Handle
  Baseline Model Infiltration Schedule,   !- Name
  {9a7c5b19-1dca-4134-841c-900594805a97}, !- Schedule Type Limits Name
  {7531ac6f-885c-40b9-8b5c-2e303c69330f}, !- Default Day Schedule Name
  {0c36eed2-70c0-4e22-858b-6f1cc201fc0c}, !- Summer Design Day Schedule Name
  {a7841321-7c90-411d-99f5-784079f0ad45}; !- Winter Design Day Schedule Name

OS:Schedule:Day,
  {7531ac6f-885c-40b9-8b5c-2e303c69330f}, !- Handle
  Baseline Model Infiltration Schedule Schedule All Days, !- Name
  {9a7c5b19-1dca-4134-841c-900594805a97}, !- Schedule Type Limits Name
  ,                                       !- Interpolate to Timestep
  6,                                      !- Hour 1
  0,                                      !- Minute 1
  1,                                      !- Value Until Time 1
  22,                                     !- Hour 2
  0,                                      !- Minute 2
  0.25,                                   !- Value Until Time 2
  24,                                     !- Hour 3
  0,                                      !- Minute 3
  1;                                      !- Value Until Time 3

OS:Schedule:Day,
  {ced6b00b-ad86-417b-92ce-a63a0f16859b}, !- Handle
  Schedule Day 2,                         !- Name
  ,                                       !- Schedule Type Limits Name
  ,                                       !- Interpolate to Timestep
  24,                                     !- Hour 1
  0,                                      !- Minute 1
  0;                                      !- Value Until Time 1

OS:Schedule:Day,
  {a7841321-7c90-411d-99f5-784079f0ad45}, !- Handle
  Baseline Model Infiltration Schedule Winter Design Day, !- Name
  {9a7c5b19-1dca-4134-841c-900594805a97}, !- Schedule Type Limits Name
  ,                                       !- Interpolate to Timestep
  24,                                     !- Hour 1
  0,                                      !- Minute 1
  1;                                      !- Value Until Time 1

OS:Schedule:Day,
  {e421b202-1a11-4c37-836e-b24489ad5e20}, !- Handle
  Schedule Day 3,                         !- Name
  ,                                       !- Schedule Type Limits Name
  ,                                       !- Interpolate to Timestep
  24,                                     !- Hour 1
  0,                                      !- Minute 1
  0;                                      !- Value Until Time 1

OS:Schedule:Day,
  {0c36eed2-70c0-4e22-858b-6f1cc201fc0c}, !- Handle
  Baseline Model Infiltration Schedule Summer Design Day, !- Name
  {9a7c5b19-1dca-4134-841c-900594805a97}, !- Schedule Type Limits Name
  ,                                       !- Interpolate to Timestep
  24,                                     !- Hour 1
  0,                                      !- Minute 1
  1;                                      !- Value Until Time 1

OS:ScheduleTypeLimits,
  {9a7c5b19-1dca-4134-841c-900594805a97}, !- Handle
  Fractional,                             !- Name
  0,                                      !- Lower Limit Value
  1,                                      !- Upper Limit Value
  Continuous;                             !- Numeric Type

OS:Schedule:Ruleset,
  {aa51c6a8-12ae-4e84-b468-dc1b3fcb47c7}, !- Handle
  Baseline Model People Lights and Equipment Schedule, !- Name
  {9a7c5b19-1dca-4134-841c-900594805a97}, !- Schedule Type Limits Name
  {44142893-f2ce-470a-a4d7-14d4641f6b49}, !- Default Day Schedule Name
  {0b133c3c-d9ef-4c24-972e-b1273c066bc1}, !- Summer Design Day Schedule Name
  {5f938160-db6a-448b-bea9-dbc5b11c8baa}; !- Winter Design Day Schedule Name

OS:Schedule:Day,
  {44142893-f2ce-470a-a4d7-14d4641f6b49}, !- Handle
  Baseline Model People Lights and Equipment Schedule Schedule Week Day, !- Name
  {9a7c5b19-1dca-4134-841c-900594805a97}, !- Schedule Type Limits Name
  ,                                       !- Interpolate to Timestep
  6,                                      !- Hour 1
  0,                                      !- Minute 1
  0,                                      !- Value Until Time 1
  7,                                      !- Hour 2
  0,                                      !- Minute 2
  0.1,                                    !- Value Until Time 2
  8,                                      !- Hour 3
  0,                                      !- Minute 3
  0.2,                                    !- Value Until Time 3
  12,                                     !- Hour 4
  0,                                      !- Minute 4
  0.95,                                   !- Value Until Time 4
  13,                                     !- Hour 5
  0,                                      !- Minute 5
  0.5,                                    !- Value Until Time 5
  17,                                     !- Hour 6
  0,                                      !- Minute 6
  0.95,                                   !- Value Until Time 6
  18,                                     !- Hour 7
  0,                                      !- Minute 7
  0.7,                                    !- Value Until Time 7
  20,                                     !- Hour 8
  0,                                      !- Minute 8
  0.4,                                    !- Value Until Time 8
  22,                                     !- Hour 9
  0,                                      !- Minute 9
  0.1,                                    !- Value Until Time 9
  24,                                     !- Hour 10
  0,                                      !- Minute 10
  0.05;                                   !- Value Until Time 10

OS:Schedule:Day,
  {472e96db-e2b3-4bb9-9ded-6108e85e2782}, !- Handle
  Schedule Day 4,                         !- Name
  ,                                       !- Schedule Type Limits Name
  ,                                       !- Interpolate to Timestep
  24,                                     !- Hour 1
  0,                                      !- Minute 1
  0;                                      !- Value Until Time 1

OS:Schedule:Day,
  {5f938160-db6a-448b-bea9-dbc5b11c8baa}, !- Handle
  Baseline Model People Lights and Equipment Schedule Winter Design Day, !- Name
  {9a7c5b19-1dca-4134-841c-900594805a97}, !- Schedule Type Limits Name
  ,                                       !- Interpolate to Timestep
  24,                                     !- Hour 1
  0,                                      !- Minute 1
  0;                                      !- Value Until Time 1

OS:Schedule:Day,
  {8aeeb6af-1264-41cd-9b91-aadb27aca44a}, !- Handle
  Schedule Day 5,                         !- Name
  ,                                       !- Schedule Type Limits Name
  ,                                       !- Interpolate to Timestep
  24,                                     !- Hour 1
  0,                                      !- Minute 1
  0;                                      !- Value Until Time 1

OS:Schedule:Day,
  {0b133c3c-d9ef-4c24-972e-b1273c066bc1}, !- Handle
  Baseline Model People Lights and Equipment Schedule Summer Design Day, !- Name
  {9a7c5b19-1dca-4134-841c-900594805a97}, !- Schedule Type Limits Name
  ,                                       !- Interpolate to Timestep
  24,                                     !- Hour 1
  0,                                      !- Minute 1
  1;                                      !- Value Until Time 1

OS:Schedule:Rule,
  {c92e2169-ba5a-4e3f-9804-6c70222f51bd}, !- Handle
  Baseline Model People Lights and Equipment Schedule Saturday Rule, !- Name
  {aa51c6a8-12ae-4e84-b468-dc1b3fcb47c7}, !- Schedule Ruleset Name
  1,                                      !- Rule Order
  {609c8d47-c01a-4552-8ecf-914b2389481f}, !- Day Schedule Name
  ,                                       !- Apply Sunday
  ,                                       !- Apply Monday
  ,                                       !- Apply Tuesday
  ,                                       !- Apply Wednesday
  ,                                       !- Apply Thursday
  ,                                       !- Apply Friday
  Yes;                                    !- Apply Saturday

OS:Schedule:Day,
  {609c8d47-c01a-4552-8ecf-914b2389481f}, !- Handle
  Baseline Model People Lights and Equipment Schedule Saturday, !- Name
  {9a7c5b19-1dca-4134-841c-900594805a97}, !- Schedule Type Limits Name
  ,                                       !- Interpolate to Timestep
  6,                                      !- Hour 1
  0,                                      !- Minute 1
  0,                                      !- Value Until Time 1
  8,                                      !- Hour 2
  0,                                      !- Minute 2
  0.1,                                    !- Value Until Time 2
  14,                                     !- Hour 3
  0,                                      !- Minute 3
  0.5,                                    !- Value Until Time 3
  17,                                     !- Hour 4
  0,                                      !- Minute 4
  0.1,                                    !- Value Until Time 4
  24,                                     !- Hour 5
  0,                                      !- Minute 5
  0;                                      !- Value Until Time 5

OS:Schedule:Rule,
  {90f0c853-7eaf-4a92-9731-f96924bf6d83}, !- Handle
  Baseline Model People Lights and Equipment Schedule Sunday Rule, !- Name
  {aa51c6a8-12ae-4e84-b468-dc1b3fcb47c7}, !- Schedule Ruleset Name
  0,                                      !- Rule Order
  {19116660-f819-4e6e-afb5-993f9f9e0c11}, !- Day Schedule Name
  Yes;                                    !- Apply Sunday

OS:Schedule:Day,
  {19116660-f819-4e6e-afb5-993f9f9e0c11}, !- Handle
  Baseline Model People Lights and Equipment Schedule Schedule Sunday, !- Name
  {9a7c5b19-1dca-4134-841c-900594805a97}, !- Schedule Type Limits Name
  ,                                       !- Interpolate to Timestep
  24,                                     !- Hour 1
  0,                                      !- Minute 1
  0;                                      !- Value Until Time 1

OS:Schedule:Ruleset,
  {faa33ce0-0884-4103-ba5b-b5f61115d256}, !- Handle
  Baseline Model People Activity Schedule, !- Name
  {7103ad5e-b064-48bd-b842-c1a59c6e2a44}, !- Schedule Type Limits Name
  {8132e034-3f52-4fd2-9a58-d59c2752aac2}; !- Default Day Schedule Name

OS:Schedule:Day,
  {8132e034-3f52-4fd2-9a58-d59c2752aac2}, !- Handle
  Baseline Model People Activity Schedule Default, !- Name
  {7103ad5e-b064-48bd-b842-c1a59c6e2a44}, !- Schedule Type Limits Name
  ,                                       !- Interpolate to Timestep
  24,                                     !- Hour 1
  0,                                      !- Minute 1
  120;                                    !- Value Until Time 1

OS:ScheduleTypeLimits,
  {7103ad5e-b064-48bd-b842-c1a59c6e2a44}, !- Handle
  ActivityLevel,                          !- Name
  0,                                      !- Lower Limit Value
  ,                                       !- Upper Limit Value
  Continuous,                             !- Numeric Type
  ActivityLevel;                          !- Unit Type

OS:DesignSpecification:OutdoorAir,
  {f9241d0a-c4bf-4ca0-918a-60b33531039e}, !- Handle
  Baseline Model OA,                      !- Name
  Sum,                                    !- Outdoor Air Method
  0.009438948864,                         !- Outdoor Air Flow per Person {m3/s-person}
  ,                                       !- Outdoor Air Flow per Floor Area {m3/s-m2}
  ,                                       !- Outdoor Air Flow Rate {m3/s}
  ,                                       !- Outdoor Air Flow Air Changes per Hour {1/hr}
  ;                                       !- Outdoor Air Flow Rate Fraction Schedule Name

OS:SpaceInfiltration:DesignFlowRate,
  {9ff23fd5-5c0e-4a4f-a885-a45724209af3}, !- Handle
  Baseline Model Infiltration,            !- Name
  {264b9d6d-4e4d-49cd-851b-1d65e0a392ae}, !- Space or SpaceType Name
  ,                                       !- Schedule Name
  Flow/ExteriorArea,                      !- Design Flow Rate Calculation Method
  ,                                       !- Design Flow Rate {m3/s}
  ,                                       !- Flow per Space Floor Area {m3/s-m2}
  0.0003048,                              !- Flow per Exterior Surface Area {m3/s-m2}
  ,                                       !- Air Changes per Hour {1/hr}
  ,                                       !- Constant Term Coefficient
  ,                                       !- Temperature Term Coefficient
  ,                                       !- Velocity Term Coefficient
  ;                                       !- Velocity Squared Term Coefficient

OS:People:Definition,
  {d0404b9f-915e-4d61-ad9c-a5408bfb0f7c}, !- Handle
  Baseline Model People Definition,       !- Name
  People/Area,                            !- Number of People Calculation Method
  ,                                       !- Number of People {people}
  0.0538195520835486,                     !- People per Space Floor Area {person/m2}
  ,                                       !- Space Floor Area per Person {m2/person}
  0.3;                                    !- Fraction Radiant

OS:People,
  {f14c8d3a-738d-4241-ab3a-32280d8c7b1e}, !- Handle
  Baseline Model People,                  !- Name
  {d0404b9f-915e-4d61-ad9c-a5408bfb0f7c}, !- People Definition Name
  {264b9d6d-4e4d-49cd-851b-1d65e0a392ae}, !- Space or SpaceType Name
  ,                                       !- Number of People Schedule Name
  ,                                       !- Activity Level Schedule Name
  ,                                       !- Surface Name/Angle Factor List Name
  ,                                       !- Work Efficiency Schedule Name
  ,                                       !- Clothing Insulation Schedule Name
  ,                                       !- Air Velocity Schedule Name
  1;                                      !- Multiplier

OS:Lights:Definition,
  {5708757f-c731-4dc4-a9f0-7f0b65c10d1c}, !- Handle
  Baseline Model Lights Definition,       !- Name
  Watts/Area,                             !- Design Level Calculation Method
  ,                                       !- Lighting Level {W}
  10.7639104167097,                       !- Watts per Space Floor Area {W/m2}
  ;                                       !- Watts per Person {W/person}

OS:Lights,
  {a20f57b9-6837-4c27-8a64-e3bb986b7b0a}, !- Handle
  Baseline Model Lights,                  !- Name
  {5708757f-c731-4dc4-a9f0-7f0b65c10d1c}, !- Lights Definition Name
  {264b9d6d-4e4d-49cd-851b-1d65e0a392ae}, !- Space or SpaceType Name
  ,                                       !- Schedule Name
  1,                                      !- Fraction Replaceable
  ,                                       !- Multiplier
  General;                                !- End-Use Subcategory

OS:ElectricEquipment:Definition,
  {5062613a-8a28-4c34-9fea-d5d3c0c10621}, !- Handle
  Baseline Model Electric Equipment Definition, !- Name
  Watts/Area,                             !- Design Level Calculation Method
  ,                                       !- Design Level {W}
  10.7639104167097,                       !- Watts per Space Floor Area {W/m2}
  ;                                       !- Watts per Person {W/person}

OS:ElectricEquipment,
  {eb738f4a-ae29-4d31-9261-203c799364ec}, !- Handle
  Baseline Model Electric Equipment,      !- Name
  {5062613a-8a28-4c34-9fea-d5d3c0c10621}, !- Electric Equipment Definition Name
  {264b9d6d-4e4d-49cd-851b-1d65e0a392ae}, !- Space or SpaceType Name
  ,                                       !- Schedule Name
  ,                                       !- Multiplier
  General;                                !- End-Use Subcategory

OS:SizingPeriod:DesignDay,
  {31c2082d-7427-4f89-a372-9f28e29f4f39}, !- Handle
  Chicago Ohare Intl Ap Ann Clg .4% Condns DB=>MWB, !- Name
  33.3,                                   !- Maximum Dry-Bulb Temperature {C}
  10.5,                                   !- Daily Dry-Bulb Temperature Range {deltaC}
  23.7,                                   !- Humidity Indicating Conditions at Maximum Dry-Bulb
  98934,                                  !- Barometric Pressure {Pa}
  5.2,                                    !- Wind Speed {m/s}
  230,                                    !- Wind Direction {deg}
  0,                                      !- Sky Clearness
  0,                                      !- Rain Indicator
  0,                                      !- Snow Indicator
  21,                                     !- Day of Month
  7,                                      !- Month
  SummerDesignDay,                        !- Day Type
  0,                                      !- Daylight Saving Time Indicator
  Wetbulb,                                !- Humidity Indicating Type
  ,                                       !- Humidity Indicating Day Schedule Name
  DefaultMultipliers,                     !- Dry-Bulb Temperature Range Modifier Type
  ,                                       !- Dry-Bulb Temperature Range Modifier Schedule Name
  ASHRAETau,                              !- Solar Model Indicator
  ,                                       !- Beam Solar Day Schedule Name
  ,                                       !- Diffuse Solar Day Schedule Name
  0.455,                                  !- ASHRAE Taub {dimensionless}
  2.05;                                   !- ASHRAE Taud {dimensionless}

OS:SizingPeriod:DesignDay,
  {52bc13c7-e7b0-44c0-a8c5-b352151e70fa}, !- Handle
  Chicago Ohare Intl Ap Ann Htg 99.6% Condns DB, !- Name
  -20,                                    !- Maximum Dry-Bulb Temperature {C}
  0,                                      !- Daily Dry-Bulb Temperature Range {deltaC}
  -20,                                    !- Humidity Indicating Conditions at Maximum Dry-Bulb
  98934,                                  !- Barometric Pressure {Pa}
  4.9,                                    !- Wind Speed {m/s}
  270,                                    !- Wind Direction {deg}
  0,                                      !- Sky Clearness
  0,                                      !- Rain Indicator
  0,                                      !- Snow Indicator
  21,                                     !- Day of Month
  1,                                      !- Month
  WinterDesignDay,                        !- Day Type
  0,                                      !- Daylight Saving Time Indicator
  Wetbulb,                                !- Humidity Indicating Type
  ,                                       !- Humidity Indicating Day Schedule Name
  DefaultMultipliers,                     !- Dry-Bulb Temperature Range Modifier Type
  ,                                       !- Dry-Bulb Temperature Range Modifier Schedule Name
  ASHRAEClearSky;                         !- Solar Model Indicator

OS:SimulationControl,
  {84d82065-43c5-473d-815c-b6073317c972}, !- Handle
  ,                                       !- Do Zone Sizing Calculation
  ,                                       !- Do System Sizing Calculation
  ,                                       !- Do Plant Sizing Calculation
  No,                                     !- Run Simulation for Sizing Periods
  Yes;                                    !- Run Simulation for Weather File Run Periods

OS:Timestep,
  {afb8aebf-2da1-4a00-aebe-19136b910a97}, !- Handle
  4;                                      !- Number of Timesteps per Hour

OS:Output:Diagnostics,
  {2f540ac0-8c8d-4a1e-9ff4-c51738dae657}, !- Handle
  DisplayExtraWarnings,                   !- Key 1
  ReportDuringWarmup;                     !- Key 2

OS:Output:JSON,
  {d9bc79a5-0541-40ad-9aa1-b9fbe1cf2e79}, !- Handle
  TimeSeriesAndTabular,                   !- Option Type
  Yes,                                    !- Output JSON
  No,                                     !- Output CBOR
  No;                                     !- Output MessagePack

OS:Output:DebuggingData,
  {2866a00b-dbd2-4400-8b4a-13df69bb95d8}, !- Handle
  Yes,                                    !- Report Debugging Data
  Yes;                                    !- Report During Warmup

OS:Output:Table:SummaryReports,
  {caabd041-df8b-4e92-8013-1be4d154c9c8}, !- Handle
  AllSummary,                             !- Report Name 1
  AdaptiveComfortSummary,                 !- Report Name 2
  OutdoorAirSummary,                      !- Report Name 3
  ObjectCountSummary;                     !- Report Name 4

